# generated using pymatgen
data_KAgF3
_symmetry_space_group_name_H-M   'P 1'
_cell_length_a   5.99687912
_cell_length_b   6.18287501
_cell_length_c   8.50323080
_cell_angle_alpha   90.00000000
_cell_angle_beta   90.00000000
_cell_angle_gamma   90.00000000
_symmetry_Int_Tables_number   1
_chemical_formula_structural   KAgF3
_chemical_formula_sum   'K4 Ag4 F12'
_cell_volume   315.28240087
_cell_formula_units_Z   4
loop_
 _symmetry_equiv_pos_site_id
 _symmetry_equiv_pos_as_xyz
  1  'x, y, z'
loop_
 _atom_type_symbol
 _atom_type_oxidation_number
  K+  1.0
  Ag2+  2.0
  F-  -1.0
loop_
 _atom_site_type_symbol
 _atom_site_label
 _atom_site_symmetry_multiplicity
 _atom_site_fract_x
 _atom_site_fract_y
 _atom_site_fract_z
 _atom_site_occupancy
  K+  K0  1  0.00955892  0.54332877  0.25000000  1
  K+  K1  1  0.49044108  0.04332877  0.25000000  1
  K+  K2  1  0.99044108  0.45667123  0.75000000  1
  K+  K3  1  0.50955892  0.95667123  0.75000000  1
  Ag2+  Ag4  1  0.50000000  0.50000000  0.00000000  1
  Ag2+  Ag5  1  0.00000000  0.00000000  0.50000000  1
  Ag2+  Ag6  1  0.50000000  0.50000000  0.50000000  1
  Ag2+  Ag7  1  0.00000000  0.00000000  0.00000000  1
  F-  F8  1  0.94354894  0.98943943  0.25000000  1
  F-  F9  1  0.55645106  0.48943943  0.25000000  1
  F-  F10  1  0.05645106  0.01056057  0.75000000  1
  F-  F11  1  0.44354894  0.51056057  0.75000000  1
  F-  F12  1  0.27933924  0.79626799  0.46856497  1
  F-  F13  1  0.22066076  0.29626799  0.03143503  1
  F-  F14  1  0.72066076  0.20373201  0.96856497  1
  F-  F15  1  0.77933924  0.70373201  0.53143503  1
  F-  F16  1  0.72066076  0.20373201  0.53143503  1
  F-  F17  1  0.77933924  0.70373201  0.96856497  1
  F-  F18  1  0.27933924  0.79626799  0.03143503  1
  F-  F19  1  0.22066076  0.29626799  0.46856497  1
