# generated using pymatgen
data_KCuF3
_symmetry_space_group_name_H-M   'P 1'
_cell_length_a   5.80186690
_cell_length_b   5.80186690
_cell_length_c   7.85767184
_cell_angle_alpha   90.00000000
_cell_angle_beta   90.00000000
_cell_angle_gamma   90.00000000
_symmetry_Int_Tables_number   1
_chemical_formula_structural   KCuF3
_chemical_formula_sum   'K4 Cu4 F12'
_cell_volume   264.50227410
_cell_formula_units_Z   4
loop_
 _symmetry_equiv_pos_site_id
 _symmetry_equiv_pos_as_xyz
  1  'x, y, z'
loop_
 _atom_type_symbol
 _atom_type_oxidation_number
  K+  1.0
  Cu2+  2.0
  F-  -1.0
loop_
 _atom_site_type_symbol
 _atom_site_label
 _atom_site_symmetry_multiplicity
 _atom_site_fract_x
 _atom_site_fract_y
 _atom_site_fract_z
 _atom_site_occupancy
  K+  K0  1  0.00000000  0.00000000  0.25000000  1
  K+  K1  1  0.00000000  0.00000000  0.75000000  1
  K+  K2  1  0.50000000  0.50000000  0.75000000  1
  K+  K3  1  0.50000000  0.50000000  0.25000000  1
  Cu2+  Cu4  1  0.50000000  0.00000000  0.50000000  1
  Cu2+  Cu5  1  0.00000000  0.50000000  0.50000000  1
  Cu2+  Cu6  1  0.00000000  0.50000000  0.00000000  1
  Cu2+  Cu7  1  0.50000000  0.00000000  0.00000000  1
  F-  F8  1  0.77108712  0.27108712  0.50000000  1
  F-  F9  1  0.22891288  0.27108712  0.00000000  1
  F-  F10  1  0.27108712  0.22891288  0.50000000  1
  F-  F11  1  0.72891289  0.22891288  0.00000000  1
  F-  F12  1  0.50000000  0.00000000  0.25000000  1
  F-  F13  1  0.00000000  0.50000000  0.25000000  1
  F-  F14  1  0.27108712  0.77108712  0.00000000  1
  F-  F15  1  0.72891289  0.77108712  0.50000000  1
  F-  F16  1  0.77108712  0.72891289  0.00000000  1
  F-  F17  1  0.22891288  0.72891289  0.50000000  1
  F-  F18  1  0.00000000  0.50000000  0.75000000  1
  F-  F19  1  0.50000000  0.00000000  0.75000000  1
