# generated using pymatgen
data_NaNiF3
_symmetry_space_group_name_H-M   'P 1'
_cell_length_a   5.29551073
_cell_length_b   5.52379538
_cell_length_c   7.60958255
_cell_angle_alpha   90.00000000
_cell_angle_beta   90.00000000
_cell_angle_gamma   90.00000000
_symmetry_Int_Tables_number   1
_chemical_formula_structural   NaNiF3
_chemical_formula_sum   'Na4 Ni4 F12'
_cell_volume   222.59031683
_cell_formula_units_Z   4
loop_
 _symmetry_equiv_pos_site_id
 _symmetry_equiv_pos_as_xyz
  1  'x, y, z'
loop_
 _atom_type_symbol
 _atom_type_oxidation_number
  Na+  1.0
  Ni2+  2.0
  F-  -1.0
loop_
 _atom_site_type_symbol
 _atom_site_label
 _atom_site_symmetry_multiplicity
 _atom_site_fract_x
 _atom_site_fract_y
 _atom_site_fract_z
 _atom_site_occupancy
  Na+  Na0  1  0.01760823  0.43513921  0.75000000  1
  Na+  Na1  1  0.51760823  0.06486079  0.25000000  1
  Na+  Na2  1  0.48239177  0.93513921  0.75000000  1
  Na+  Na3  1  0.98239178  0.56486079  0.25000000  1
  Ni2+  Ni4  1  0.50000000  0.50000000  0.50000000  1
  Ni2+  Ni5  1  0.00000000  0.00000000  0.50000000  1
  Ni2+  Ni6  1  0.00000000  0.00000000  0.00000000  1
  Ni2+  Ni7  1  0.50000000  0.50000000  0.00000000  1
  F-  F8  1  0.69340168  0.80193694  0.44367878  1
  F-  F9  1  0.19340168  0.69806306  0.55632122  1
  F-  F10  1  0.80659833  0.30193694  0.05632122  1
  F-  F11  1  0.30659832  0.19806306  0.94367878  1
  F-  F12  1  0.30659832  0.19806306  0.55632122  1
  F-  F13  1  0.80659833  0.30193694  0.44367878  1
  F-  F14  1  0.19340168  0.69806306  0.94367878  1
  F-  F15  1  0.69340168  0.80193694  0.05632122  1
  F-  F16  1  0.10884164  0.96199665  0.25000000  1
  F-  F17  1  0.60884163  0.53800335  0.75000000  1
  F-  F18  1  0.39115836  0.46199665  0.25000000  1
  F-  F19  1  0.89115836  0.03800335  0.75000000  1
