# generated using pymatgen
data_SrZrO3
_symmetry_space_group_name_H-M   'P 1'
_cell_length_a   5.76967316
_cell_length_b   5.76967316
_cell_length_c   8.36857623
_cell_angle_alpha   90.00000000
_cell_angle_beta   90.00000000
_cell_angle_gamma   90.00000000
_symmetry_Int_Tables_number   1
_chemical_formula_structural   SrZrO3
_chemical_formula_sum   'Sr4 Zr4 O12'
_cell_volume   278.58260794
_cell_formula_units_Z   4
loop_
 _symmetry_equiv_pos_site_id
 _symmetry_equiv_pos_as_xyz
  1  'x, y, z'
loop_
 _atom_type_symbol
 _atom_type_oxidation_number
  Sr2+  2.0
  Zr4+  4.0
  O2-  -2.0
loop_
 _atom_site_type_symbol
 _atom_site_label
 _atom_site_symmetry_multiplicity
 _atom_site_fract_x
 _atom_site_fract_y
 _atom_site_fract_z
 _atom_site_occupancy
  Sr2+  Sr0  1  0.00000000  0.50000000  0.25000000  1
  Sr2+  Sr1  1  0.50000000  0.00000000  0.25000000  1
  Sr2+  Sr2  1  0.50000000  0.00000000  0.75000000  1
  Sr2+  Sr3  1  0.00000000  0.50000000  0.75000000  1
  Zr4+  Zr4  1  0.00000000  0.00000000  0.00000000  1
  Zr4+  Zr5  1  0.50000000  0.50000000  0.00000000  1
  Zr4+  Zr6  1  0.50000000  0.50000000  0.50000000  1
  Zr4+  Zr7  1  0.00000000  0.00000000  0.50000000  1
  O2-  O8  1  0.19176805  0.69176805  0.50000000  1
  O2-  O9  1  0.30823195  0.19176805  0.50000000  1
  O2-  O10  1  0.19176805  0.30823195  0.00000000  1
  O2-  O11  1  0.30823195  0.80823195  0.00000000  1
  O2-  O12  1  0.00000000  0.00000000  0.25000000  1
  O2-  O13  1  0.50000000  0.50000000  0.25000000  1
  O2-  O14  1  0.69176805  0.19176805  0.00000000  1
  O2-  O15  1  0.80823195  0.69176805  0.00000000  1
  O2-  O16  1  0.69176805  0.80823195  0.50000000  1
  O2-  O17  1  0.80823195  0.30823195  0.50000000  1
  O2-  O18  1  0.50000000  0.50000000  0.75000000  1
  O2-  O19  1  0.00000000  0.00000000  0.75000000  1
