# generated using pymatgen
data_SiO2
_symmetry_space_group_name_H-M   'P 1'
_cell_length_a   5.00538596
_cell_length_b   9.06340366
_cell_length_c   8.18726759
_cell_angle_alpha   90.00000000
_cell_angle_beta   90.00000000
_cell_angle_gamma   90.00000000
_symmetry_Int_Tables_number   1
_chemical_formula_structural   SiO2
_chemical_formula_sum   'Si8 O16'
_cell_volume   371.42221773
_cell_formula_units_Z   8
loop_
 _symmetry_equiv_pos_site_id
 _symmetry_equiv_pos_as_xyz
  1  'x, y, z'
loop_
 _atom_type_symbol
 _atom_type_oxidation_number
  Si4+  4.0
  O2-  -2.0
loop_
 _atom_site_type_symbol
 _atom_site_label
 _atom_site_symmetry_multiplicity
 _atom_site_fract_x
 _atom_site_fract_y
 _atom_site_fract_z
 _atom_site_occupancy
  Si4+  Si0  1  0.59237340  0.16712752  0.56264300  1
  Si4+  Si1  1  0.09237340  0.33287248  0.43735700  1
  Si4+  Si2  1  0.90762660  0.33287248  0.06264300  1
  Si4+  Si3  1  0.40762660  0.16712752  0.93735700  1
  Si4+  Si4  1  0.09237340  0.66712752  0.56264300  1
  Si4+  Si5  1  0.59237340  0.83287248  0.43735700  1
  Si4+  Si6  1  0.40762660  0.83287248  0.06264300  1
  Si4+  Si7  1  0.90762660  0.66712752  0.93735700  1
  O2-  O8  1  0.38278568  0.25753844  0.45157416  1
  O2-  O9  1  0.88278568  0.24246156  0.54842584  1
  O2-  O10  1  0.11721432  0.24246156  0.95157416  1
  O2-  O11  1  0.61721432  0.25753844  0.04842584  1
  O2-  O12  1  0.00000000  0.32972841  0.25000000  1
  O2-  O13  1  0.50000000  0.17027159  0.75000000  1
  O2-  O14  1  0.38919679  0.00000000  0.00000000  1
  O2-  O15  1  0.61080321  0.00000000  0.50000000  1
  O2-  O16  1  0.88278568  0.75753844  0.45157416  1
  O2-  O17  1  0.38278568  0.74246156  0.54842584  1
  O2-  O18  1  0.61721432  0.74246156  0.95157416  1
  O2-  O19  1  0.11721432  0.75753844  0.04842584  1
  O2-  O20  1  0.50000000  0.82972841  0.25000000  1
  O2-  O21  1  0.00000000  0.67027159  0.75000000  1
  O2-  O22  1  0.88919679  0.50000000  0.00000000  1
  O2-  O23  1  0.11080321  0.50000000  0.50000000  1
