# generated using pymatgen
data_Si3N4
_symmetry_space_group_name_H-M   'P 1'
_cell_length_a   7.75224420
_cell_length_b   7.75224420
_cell_length_c   5.61885196
_cell_angle_alpha   90.00000000
_cell_angle_beta   90.00000000
_cell_angle_gamma   120.00000000
_symmetry_Int_Tables_number   1
_chemical_formula_structural   Si3N4
_chemical_formula_sum   'Si12 N16'
_cell_volume   292.43753257
_cell_formula_units_Z   4
loop_
 _symmetry_equiv_pos_site_id
 _symmetry_equiv_pos_as_xyz
  1  'x, y, z'
loop_
 _atom_type_symbol
 _atom_type_oxidation_number
  Si4+  4.0
  N3-  -3.0
loop_
 _atom_site_type_symbol
 _atom_site_label
 _atom_site_symmetry_multiplicity
 _atom_site_fract_x
 _atom_site_fract_y
 _atom_site_fract_z
 _atom_site_occupancy
  Si4+  Si0  1  0.08183856  0.56959356  0.19639718  1
  Si4+  Si1  1  0.48775500  0.91816144  0.19639718  1
  Si4+  Si2  1  0.91376937  0.16718716  0.98847927  1
  Si4+  Si3  1  0.56959356  0.08183856  0.69639718  1
  Si4+  Si4  1  0.08623063  0.25341779  0.48847927  1
  Si4+  Si5  1  0.16718716  0.91376937  0.48847927  1
  Si4+  Si6  1  0.43040644  0.51224500  0.19639718  1
  Si4+  Si7  1  0.74658221  0.83281284  0.48847927  1
  Si4+  Si8  1  0.91816144  0.48775500  0.69639718  1
  Si4+  Si9  1  0.51224500  0.43040644  0.69639718  1
  Si4+  Si10  1  0.83281284  0.74658221  0.98847927  1
  Si4+  Si11  1  0.25341779  0.08623063  0.98847927  1
  N3-  N12  1  0.34445222  0.39000089  0.46906888  1
  N3-  N13  1  0.04554867  0.65554778  0.46906888  1
  N3-  N14  1  0.39000089  0.34445222  0.96906888  1
  N3-  N15  1  0.60999911  0.95445133  0.46906888  1
  N3-  N16  1  0.00000000  0.00000000  0.98900807  1
  N3-  N17  1  0.99637858  0.31473305  0.73484545  1
  N3-  N18  1  0.00000000  0.00000000  0.48900807  1
  N3-  N19  1  0.66666667  0.33333333  0.64074727  1
  N3-  N20  1  0.68164553  0.68526695  0.23484545  1
  N3-  N21  1  0.65554778  0.04554867  0.96906888  1
  N3-  N22  1  0.95445133  0.60999911  0.96906888  1
  N3-  N23  1  0.33333333  0.66666667  0.14074727  1
  N3-  N24  1  0.00362142  0.31835447  0.23484545  1
  N3-  N25  1  0.31835447  0.00362142  0.73484545  1
  N3-  N26  1  0.68526695  0.68164553  0.73484545  1
  N3-  N27  1  0.31473305  0.99637858  0.23484545  1
