# generated using pymatgen
data_Mn3Al2(SiO4)3
_symmetry_space_group_name_H-M   'P 1'
_cell_length_a   11.74305000
_cell_length_b   11.74305000
_cell_length_c   11.74305000
_cell_angle_alpha   90.00000000
_cell_angle_beta   90.00000000
_cell_angle_gamma   90.00000000
_symmetry_Int_Tables_number   1
_chemical_formula_structural   Mn3Al2(SiO4)3
_chemical_formula_sum   'Mn24 Al16 Si24 O96'
_cell_volume   1619.35747420
_cell_formula_units_Z   8
loop_
 _symmetry_equiv_pos_site_id
 _symmetry_equiv_pos_as_xyz
  1  'x, y, z'
loop_
 _atom_type_symbol
 _atom_type_oxidation_number
  Mn2+  2.0
  Al3+  3.0
  Si4+  4.0
  O2-  -2.0
loop_
 _atom_site_type_symbol
 _atom_site_label
 _atom_site_symmetry_multiplicity
 _atom_site_fract_x
 _atom_site_fract_y
 _atom_site_fract_z
 _atom_site_occupancy
  Mn2+  Mn0  1  0.00000000  0.25000000  0.12500000  1
  Mn2+  Mn1  1  0.87500000  0.50000000  0.25000000  1
  Mn2+  Mn2  1  0.12500000  0.00000000  0.25000000  1
  Mn2+  Mn3  1  0.25000000  0.87500000  0.50000000  1
  Mn2+  Mn4  1  0.50000000  0.25000000  0.87500000  1
  Mn2+  Mn5  1  0.25000000  0.12500000  0.00000000  1
  Mn2+  Mn6  1  0.25000000  0.62500000  0.00000000  1
  Mn2+  Mn7  1  0.62500000  0.00000000  0.25000000  1
  Mn2+  Mn8  1  0.50000000  0.25000000  0.37500000  1
  Mn2+  Mn9  1  0.00000000  0.25000000  0.62500000  1
  Mn2+  Mn10  1  0.25000000  0.37500000  0.50000000  1
  Mn2+  Mn11  1  0.37500000  0.50000000  0.25000000  1
  Mn2+  Mn12  1  0.50000000  0.75000000  0.62500000  1
  Mn2+  Mn13  1  0.37500000  0.00000000  0.75000000  1
  Mn2+  Mn14  1  0.62500000  0.50000000  0.75000000  1
  Mn2+  Mn15  1  0.75000000  0.37500000  0.00000000  1
  Mn2+  Mn16  1  0.00000000  0.75000000  0.37500000  1
  Mn2+  Mn17  1  0.75000000  0.62500000  0.50000000  1
  Mn2+  Mn18  1  0.75000000  0.12500000  0.50000000  1
  Mn2+  Mn19  1  0.12500000  0.50000000  0.75000000  1
  Mn2+  Mn20  1  0.00000000  0.75000000  0.87500000  1
  Mn2+  Mn21  1  0.50000000  0.75000000  0.12500000  1
  Mn2+  Mn22  1  0.75000000  0.87500000  0.00000000  1
  Mn2+  Mn23  1  0.87500000  0.00000000  0.75000000  1
  Al3+  Al24  1  0.75000000  0.25000000  0.25000000  1
  Al3+  Al25  1  0.25000000  0.25000000  0.25000000  1
  Al3+  Al26  1  0.00000000  0.50000000  0.00000000  1
  Al3+  Al27  1  0.25000000  0.25000000  0.75000000  1
  Al3+  Al28  1  0.00000000  0.00000000  0.00000000  1
  Al3+  Al29  1  0.50000000  0.00000000  0.00000000  1
  Al3+  Al30  1  0.00000000  0.00000000  0.50000000  1
  Al3+  Al31  1  0.25000000  0.75000000  0.25000000  1
  Al3+  Al32  1  0.25000000  0.75000000  0.75000000  1
  Al3+  Al33  1  0.75000000  0.75000000  0.75000000  1
  Al3+  Al34  1  0.50000000  0.00000000  0.50000000  1
  Al3+  Al35  1  0.75000000  0.75000000  0.25000000  1
  Al3+  Al36  1  0.50000000  0.50000000  0.50000000  1
  Al3+  Al37  1  0.00000000  0.50000000  0.50000000  1
  Al3+  Al38  1  0.50000000  0.50000000  0.00000000  1
  Al3+  Al39  1  0.75000000  0.25000000  0.75000000  1
  Si4+  Si40  1  0.00000000  0.25000000  0.37500000  1
  Si4+  Si41  1  0.00000000  0.75000000  0.12500000  1
  Si4+  Si42  1  0.37500000  0.00000000  0.25000000  1
  Si4+  Si43  1  0.25000000  0.12500000  0.50000000  1
  Si4+  Si44  1  0.25000000  0.37500000  0.00000000  1
  Si4+  Si45  1  0.50000000  0.25000000  0.12500000  1
  Si4+  Si46  1  0.37500000  0.50000000  0.75000000  1
  Si4+  Si47  1  0.50000000  0.75000000  0.37500000  1
  Si4+  Si48  1  0.12500000  0.50000000  0.25000000  1
  Si4+  Si49  1  0.75000000  0.37500000  0.50000000  1
  Si4+  Si50  1  0.12500000  0.00000000  0.75000000  1
  Si4+  Si51  1  0.75000000  0.12500000  0.00000000  1
  Si4+  Si52  1  0.50000000  0.75000000  0.87500000  1
  Si4+  Si53  1  0.50000000  0.25000000  0.62500000  1
  Si4+  Si54  1  0.87500000  0.50000000  0.75000000  1
  Si4+  Si55  1  0.75000000  0.62500000  0.00000000  1
  Si4+  Si56  1  0.75000000  0.87500000  0.50000000  1
  Si4+  Si57  1  0.00000000  0.75000000  0.62500000  1
  Si4+  Si58  1  0.87500000  0.00000000  0.25000000  1
  Si4+  Si59  1  0.00000000  0.25000000  0.87500000  1
  Si4+  Si60  1  0.62500000  0.00000000  0.75000000  1
  Si4+  Si61  1  0.25000000  0.87500000  0.00000000  1
  Si4+  Si62  1  0.62500000  0.50000000  0.25000000  1
  Si4+  Si63  1  0.25000000  0.62500000  0.50000000  1
  O2-  O64  1  0.34780400  0.03489400  0.54725600  1
  O2-  O65  1  0.54725600  0.34780400  0.03489400  1
  O2-  O66  1  0.46510600  0.45274400  0.84780400  1
  O2-  O67  1  0.15219600  0.03489400  0.45274400  1
  O2-  O68  1  0.29725600  0.71510600  0.59780400  1
  O2-  O69  1  0.04725600  0.15219600  0.96510600  1
  O2-  O70  1  0.20274400  0.28489400  0.09780400  1
  O2-  O71  1  0.03489400  0.54725600  0.34780400  1
  O2-  O72  1  0.29725600  0.28489400  0.90219600  1
  O2-  O73  1  0.09780400  0.20274400  0.28489400  1
  O2-  O74  1  0.71510600  0.59780400  0.29725600  1
  O2-  O75  1  0.21510600  0.90219600  0.70274400  1
  O2-  O76  1  0.90219600  0.70274400  0.21510600  1
  O2-  O77  1  0.28489400  0.09780400  0.20274400  1
  O2-  O78  1  0.90219600  0.29725600  0.28489400  1
  O2-  O79  1  0.28489400  0.90219600  0.29725600  1
  O2-  O80  1  0.59780400  0.29725600  0.71510600  1
  O2-  O81  1  0.84780400  0.46510600  0.45274400  1
  O2-  O82  1  0.15219600  0.96510600  0.04725600  1
  O2-  O83  1  0.20274400  0.21510600  0.59780400  1
  O2-  O84  1  0.45274400  0.15219600  0.03489400  1
  O2-  O85  1  0.03489400  0.45274400  0.15219600  1
  O2-  O86  1  0.96510600  0.04725600  0.15219600  1
  O2-  O87  1  0.70274400  0.21510600  0.90219600  1
  O2-  O88  1  0.15219600  0.46510600  0.95274400  1
  O2-  O89  1  0.95274400  0.15219600  0.46510600  1
  O2-  O90  1  0.03489400  0.04725600  0.65219600  1
  O2-  O91  1  0.34780400  0.46510600  0.04725600  1
  O2-  O92  1  0.20274400  0.78489400  0.90219600  1
  O2-  O93  1  0.45274400  0.34780400  0.53489400  1
  O2-  O94  1  0.29725600  0.21510600  0.40219600  1
  O2-  O95  1  0.46510600  0.95274400  0.15219600  1
  O2-  O96  1  0.79725600  0.28489400  0.59780400  1
  O2-  O97  1  0.53489400  0.45274400  0.34780400  1
  O2-  O98  1  0.46510600  0.04725600  0.34780400  1
  O2-  O99  1  0.04725600  0.65219600  0.03489400  1
  O2-  O100  1  0.04725600  0.34780400  0.46510600  1
  O2-  O101  1  0.34780400  0.53489400  0.45274400  1
  O2-  O102  1  0.65219600  0.03489400  0.04725600  1
  O2-  O103  1  0.90219600  0.20274400  0.78489400  1
  O2-  O104  1  0.21510600  0.59780400  0.20274400  1
  O2-  O105  1  0.59780400  0.20274400  0.21510600  1
  O2-  O106  1  0.21510600  0.40219600  0.29725600  1
  O2-  O107  1  0.59780400  0.79725600  0.28489400  1
  O2-  O108  1  0.28489400  0.59780400  0.79725600  1
  O2-  O109  1  0.78489400  0.90219600  0.20274400  1
  O2-  O110  1  0.40219600  0.29725600  0.21510600  1
  O2-  O111  1  0.45274400  0.84780400  0.46510600  1
  O2-  O112  1  0.84780400  0.53489400  0.04725600  1
  O2-  O113  1  0.04725600  0.84780400  0.53489400  1
  O2-  O114  1  0.96510600  0.95274400  0.34780400  1
  O2-  O115  1  0.65219600  0.53489400  0.95274400  1
  O2-  O116  1  0.79725600  0.21510600  0.09780400  1
  O2-  O117  1  0.54725600  0.65219600  0.46510600  1
  O2-  O118  1  0.70274400  0.78489400  0.59780400  1
  O2-  O119  1  0.53489400  0.04725600  0.84780400  1
  O2-  O120  1  0.79725600  0.78489400  0.40219600  1
  O2-  O121  1  0.59780400  0.70274400  0.78489400  1
  O2-  O122  1  0.21510600  0.09780400  0.79725600  1
  O2-  O123  1  0.71510600  0.40219600  0.20274400  1
  O2-  O124  1  0.40219600  0.20274400  0.71510600  1
  O2-  O125  1  0.78489400  0.59780400  0.70274400  1
  O2-  O126  1  0.40219600  0.79725600  0.78489400  1
  O2-  O127  1  0.78489400  0.40219600  0.79725600  1
  O2-  O128  1  0.09780400  0.79725600  0.21510600  1
  O2-  O129  1  0.34780400  0.96510600  0.95274400  1
  O2-  O130  1  0.65219600  0.46510600  0.54725600  1
  O2-  O131  1  0.70274400  0.71510600  0.09780400  1
  O2-  O132  1  0.95274400  0.65219600  0.53489400  1
  O2-  O133  1  0.53489400  0.95274400  0.65219600  1
  O2-  O134  1  0.46510600  0.54725600  0.65219600  1
  O2-  O135  1  0.20274400  0.71510600  0.40219600  1
  O2-  O136  1  0.65219600  0.96510600  0.45274400  1
  O2-  O137  1  0.45274400  0.65219600  0.96510600  1
  O2-  O138  1  0.53489400  0.54725600  0.15219600  1
  O2-  O139  1  0.84780400  0.96510600  0.54725600  1
  O2-  O140  1  0.70274400  0.28489400  0.40219600  1
  O2-  O141  1  0.95274400  0.84780400  0.03489400  1
  O2-  O142  1  0.79725600  0.71510600  0.90219600  1
  O2-  O143  1  0.96510600  0.45274400  0.65219600  1
  O2-  O144  1  0.29725600  0.78489400  0.09780400  1
  O2-  O145  1  0.03489400  0.95274400  0.84780400  1
  O2-  O146  1  0.96510600  0.54725600  0.84780400  1
  O2-  O147  1  0.54725600  0.15219600  0.53489400  1
  O2-  O148  1  0.54725600  0.84780400  0.96510600  1
  O2-  O149  1  0.84780400  0.03489400  0.95274400  1
  O2-  O150  1  0.15219600  0.53489400  0.54725600  1
  O2-  O151  1  0.40219600  0.70274400  0.28489400  1
  O2-  O152  1  0.71510600  0.09780400  0.70274400  1
  O2-  O153  1  0.09780400  0.70274400  0.71510600  1
  O2-  O154  1  0.71510600  0.90219600  0.79725600  1
  O2-  O155  1  0.09780400  0.29725600  0.78489400  1
  O2-  O156  1  0.78489400  0.09780400  0.29725600  1
  O2-  O157  1  0.28489400  0.40219600  0.70274400  1
  O2-  O158  1  0.90219600  0.79725600  0.71510600  1
  O2-  O159  1  0.95274400  0.34780400  0.96510600  1
