# generated using pymatgen
data_Be2SiO4
_symmetry_space_group_name_H-M   'P 1'
_cell_length_a   12.47017091
_cell_length_b   12.47017091
_cell_length_c   8.24736253
_cell_angle_alpha   90.00000000
_cell_angle_beta   90.00000000
_cell_angle_gamma   120.00000000
_symmetry_Int_Tables_number   1
_chemical_formula_structural   Be2SiO4
_chemical_formula_sum   'Be36 Si18 O72'
_cell_volume   1110.68403375
_cell_formula_units_Z   18
loop_
 _symmetry_equiv_pos_site_id
 _symmetry_equiv_pos_as_xyz
  1  'x, y, z'
loop_
 _atom_type_symbol
 _atom_type_oxidation_number
  Be2+  2.0
  Si4+  4.0
  O2-  -2.0
loop_
 _atom_site_type_symbol
 _atom_site_label
 _atom_site_symmetry_multiplicity
 _atom_site_fract_x
 _atom_site_fract_y
 _atom_site_fract_z
 _atom_site_occupancy
  Be2+  Be0  1  0.68457388  0.54535825  0.41766598  1
  Be2+  Be1  1  0.86078436  0.31542612  0.41766598  1
  Be2+  Be2  1  0.45464175  0.13921564  0.41766598  1
  Be2+  Be3  1  0.31542612  0.45464175  0.58233402  1
  Be2+  Be4  1  0.13921564  0.68457388  0.58233402  1
  Be2+  Be5  1  0.54535825  0.86078436  0.58233402  1
  Be2+  Be6  1  0.20982215  0.19417809  0.58457326  1
  Be2+  Be7  1  0.80582191  0.01564406  0.58457326  1
  Be2+  Be8  1  0.98435594  0.79017785  0.58457326  1
  Be2+  Be9  1  0.79017785  0.80582191  0.41542674  1
  Be2+  Be10  1  0.19417809  0.98435594  0.41542674  1
  Be2+  Be11  1  0.01564406  0.20982215  0.41542674  1
  Be2+  Be12  1  0.35124055  0.87869158  0.75099931  1
  Be2+  Be13  1  0.52745103  0.64875945  0.75099931  1
  Be2+  Be14  1  0.12130842  0.47254897  0.75099931  1
  Be2+  Be15  1  0.98209278  0.78797509  0.91566736  1
  Be2+  Be16  1  0.80588230  0.01790722  0.91566736  1
  Be2+  Be17  1  0.21202491  0.19411770  0.91566736  1
  Be2+  Be18  1  0.87648882  0.52751142  0.91790659  1
  Be2+  Be19  1  0.47248858  0.34897739  0.91790659  1
  Be2+  Be20  1  0.65102261  0.12351118  0.91790659  1
  Be2+  Be21  1  0.45684452  0.13915524  0.74876007  1
  Be2+  Be22  1  0.86084476  0.31768927  0.74876007  1
  Be2+  Be23  1  0.68231073  0.54315548  0.74876007  1
  Be2+  Be24  1  0.01790722  0.21202491  0.08433264  1
  Be2+  Be25  1  0.19411770  0.98209278  0.08433264  1
  Be2+  Be26  1  0.78797509  0.80588230  0.08433264  1
  Be2+  Be27  1  0.64875945  0.12130842  0.24900069  1
  Be2+  Be28  1  0.47254897  0.35124055  0.24900069  1
  Be2+  Be29  1  0.87869158  0.52745103  0.24900069  1
  Be2+  Be30  1  0.54315548  0.86084476  0.25123993  1
  Be2+  Be31  1  0.13915524  0.68231073  0.25123993  1
  Be2+  Be32  1  0.31768927  0.45684452  0.25123993  1
  Be2+  Be33  1  0.12351118  0.47248858  0.08209341  1
  Be2+  Be34  1  0.52751142  0.65102261  0.08209341  1
  Be2+  Be35  1  0.34897739  0.87648882  0.08209341  1
  Si4+  Si36  1  0.01602555  0.21164883  0.75000645  1
  Si4+  Si37  1  0.19562329  0.98397445  0.75000645  1
  Si4+  Si38  1  0.78835117  0.80437671  0.75000645  1
  Si4+  Si39  1  0.98397445  0.78835117  0.24999355  1
  Si4+  Si40  1  0.80437671  0.01602555  0.24999355  1
  Si4+  Si41  1  0.21164883  0.19562329  0.24999355  1
  Si4+  Si42  1  0.68269221  0.54498217  0.08333979  1
  Si4+  Si43  1  0.86228995  0.31730779  0.08333979  1
  Si4+  Si44  1  0.45501783  0.13771005  0.08333979  1
  Si4+  Si45  1  0.65064112  0.12168450  0.58332688  1
  Si4+  Si46  1  0.47104338  0.34935888  0.58332688  1
  Si4+  Si47  1  0.87831550  0.52895662  0.58332688  1
  Si4+  Si48  1  0.34935888  0.87831550  0.41667312  1
  Si4+  Si49  1  0.52895662  0.65064112  0.41667312  1
  Si4+  Si50  1  0.12168450  0.47104338  0.41667312  1
  Si4+  Si51  1  0.31730779  0.45501783  0.91666021  1
  Si4+  Si52  1  0.13771005  0.68269221  0.91666021  1
  Si4+  Si53  1  0.54498217  0.86228995  0.91666021  1
  O2-  O54  1  0.20882719  0.12215641  0.41523445  1
  O2-  O55  1  0.87784359  0.08667079  0.41523445  1
  O2-  O56  1  0.91332921  0.79117281  0.41523445  1
  O2-  O57  1  0.79117281  0.87784359  0.58476555  1
  O2-  O58  1  0.12215641  0.91332921  0.58476555  1
  O2-  O59  1  0.08667079  0.20882719  0.58476555  1
  O2-  O60  1  0.08819947  0.20951950  0.24976921  1
  O2-  O61  1  0.79048050  0.87867997  0.24976921  1
  O2-  O62  1  0.12132003  0.91180053  0.24976921  1
  O2-  O63  1  0.91180053  0.79048050  0.75023079  1
  O2-  O64  1  0.20951950  0.12132003  0.75023079  1
  O2-  O65  1  0.87867997  0.08819947  0.75023079  1
  O2-  O66  1  0.00003779  0.66719799  0.58342611  1
  O2-  O67  1  0.33280201  0.33283981  0.58342611  1
  O2-  O68  1  0.66716019  0.99996221  0.58342611  1
  O2-  O69  1  0.99996221  0.33280201  0.41657389  1
  O2-  O70  1  0.66719799  0.66716019  0.41657389  1
  O2-  O71  1  0.33283981  0.00003779  0.41657389  1
  O2-  O72  1  0.54324461  0.78863999  0.75160162  1
  O2-  O73  1  0.21136001  0.75460463  0.75160162  1
  O2-  O74  1  0.24539537  0.45675539  0.75160162  1
  O2-  O75  1  0.45675539  0.21136001  0.24839838  1
  O2-  O76  1  0.78863999  0.24539537  0.24839838  1
  O2-  O77  1  0.75460463  0.54324461  0.24839838  1
  O2-  O78  1  0.87549386  0.45548974  0.74856778  1
  O2-  O79  1  0.54451026  0.42000412  0.74856778  1
  O2-  O80  1  0.57999588  0.12450614  0.74856778  1
  O2-  O81  1  0.45783947  0.21117693  0.91809889  1
  O2-  O82  1  0.78882307  0.24666255  0.91809889  1
  O2-  O83  1  0.75333745  0.54216053  0.91809889  1
  O2-  O84  1  0.75486614  0.54285283  0.58310254  1
  O2-  O85  1  0.45714717  0.21201330  0.58310254  1
  O2-  O86  1  0.78798670  0.24513386  0.58310254  1
  O2-  O87  1  0.57846720  0.12381383  0.08356412  1
  O2-  O88  1  0.87618617  0.45465336  0.08356412  1
  O2-  O89  1  0.54534664  0.42153280  0.08356412  1
  O2-  O90  1  0.66670446  0.00053132  0.91675944  1
  O2-  O91  1  0.99946868  0.66617314  0.91675944  1
  O2-  O92  1  0.33382686  0.33329554  0.91675944  1
  O2-  O93  1  0.66662887  0.66613535  0.74990723  1
  O2-  O94  1  0.33386465  0.00049353  0.74990723  1
  O2-  O95  1  0.99950647  0.33337113  0.74990723  1
  O2-  O96  1  0.20991128  0.12197332  0.08493495  1
  O2-  O97  1  0.87802668  0.08793796  0.08493495  1
  O2-  O98  1  0.91206204  0.79008872  0.08493495  1
  O2-  O99  1  0.12342205  0.54469335  0.58173172  1
  O2-  O100  1  0.45530665  0.57872871  0.58173172  1
  O2-  O101  1  0.42127129  0.87657795  0.58173172  1
  O2-  O102  1  0.54216053  0.78882307  0.08190111  1
  O2-  O103  1  0.21117693  0.75333745  0.08190111  1
  O2-  O104  1  0.24666255  0.45783947  0.08190111  1
  O2-  O105  1  0.12450614  0.54451026  0.25143222  1
  O2-  O106  1  0.45548974  0.57999588  0.25143222  1
  O2-  O107  1  0.42000412  0.87549386  0.25143222  1
  O2-  O108  1  0.42153280  0.87618617  0.91643588  1
  O2-  O109  1  0.12381383  0.54534664  0.91643588  1
  O2-  O110  1  0.45465336  0.57846720  0.91643588  1
  O2-  O111  1  0.24513386  0.45714717  0.41689746  1
  O2-  O112  1  0.54285283  0.78798670  0.41689746  1
  O2-  O113  1  0.21201330  0.75486614  0.41689746  1
  O2-  O114  1  0.33337113  0.33386465  0.25009277  1
  O2-  O115  1  0.66613535  0.99950647  0.25009277  1
  O2-  O116  1  0.00049353  0.66662887  0.25009277  1
  O2-  O117  1  0.33329554  0.99946868  0.08324056  1
  O2-  O118  1  0.00053132  0.33382686  0.08324056  1
  O2-  O119  1  0.66617314  0.66670446  0.08324056  1
  O2-  O120  1  0.87657795  0.45530665  0.41826828  1
  O2-  O121  1  0.54469335  0.42127129  0.41826828  1
  O2-  O122  1  0.57872871  0.12342205  0.41826828  1
  O2-  O123  1  0.79008872  0.87802668  0.91506505  1
  O2-  O124  1  0.12197332  0.91206204  0.91506505  1
  O2-  O125  1  0.08793796  0.20991128  0.91506505  1
