# generated using pymatgen
data_KCdF3
_symmetry_space_group_name_H-M   'P 1'
_cell_length_a   6.08209058
_cell_length_b   6.18108562
_cell_length_c   8.64136873
_cell_angle_alpha   90.00000000
_cell_angle_beta   90.00000000
_cell_angle_gamma   90.00000000
_symmetry_Int_Tables_number   1
_chemical_formula_structural   KCdF3
_chemical_formula_sum   'K4 Cd4 F12'
_cell_volume   324.86294740
_cell_formula_units_Z   4
loop_
 _symmetry_equiv_pos_site_id
 _symmetry_equiv_pos_as_xyz
  1  'x, y, z'
loop_
 _atom_type_symbol
 _atom_type_oxidation_number
  K+  1.0
  Cd2+  2.0
  F-  -1.0
loop_
 _atom_site_type_symbol
 _atom_site_label
 _atom_site_symmetry_multiplicity
 _atom_site_fract_x
 _atom_site_fract_y
 _atom_site_fract_z
 _atom_site_occupancy
  K+  K0  1  0.98999991  0.04354267  0.25000000  1
  K+  K1  1  0.51000009  0.54354267  0.25000000  1
  K+  K2  1  0.48999991  0.45645733  0.75000000  1
  K+  K3  1  0.01000009  0.95645733  0.75000000  1
  Cd2+  Cd4  1  0.50000000  0.00000000  0.00000000  1
  Cd2+  Cd5  1  0.00000000  0.50000000  0.50000000  1
  Cd2+  Cd6  1  0.00000000  0.50000000  0.00000000  1
  Cd2+  Cd7  1  0.50000000  0.00000000  0.50000000  1
  F-  F8  1  0.70537481  0.29293116  0.45719199  1
  F-  F9  1  0.79462519  0.79293116  0.04280801  1
  F-  F10  1  0.20537481  0.20706884  0.54280801  1
  F-  F11  1  0.29462519  0.70706884  0.95719199  1
  F-  F12  1  0.29462519  0.70706884  0.54280801  1
  F-  F13  1  0.20537481  0.20706884  0.95719199  1
  F-  F14  1  0.79462519  0.79293116  0.45719199  1
  F-  F15  1  0.70537481  0.29293116  0.04280801  1
  F-  F16  1  0.08155843  0.47319185  0.25000000  1
  F-  F17  1  0.41844157  0.97319185  0.25000000  1
  F-  F18  1  0.58155843  0.02680815  0.75000000  1
  F-  F19  1  0.91844157  0.52680815  0.75000000  1
