# generated using pymatgen
data_RbAgF3
_symmetry_space_group_name_H-M   'P 1'
_cell_length_a   6.17094263
_cell_length_b   6.17094263
_cell_length_c   8.67373186
_cell_angle_alpha   90.00000000
_cell_angle_beta   90.00000000
_cell_angle_gamma   90.00000000
_symmetry_Int_Tables_number   1
_chemical_formula_structural   RbAgF3
_chemical_formula_sum   'Rb4 Ag4 F12'
_cell_volume   330.30033223
_cell_formula_units_Z   4
loop_
 _symmetry_equiv_pos_site_id
 _symmetry_equiv_pos_as_xyz
  1  'x, y, z'
loop_
 _atom_type_symbol
 _atom_type_oxidation_number
  Rb+  1.0
  Ag2+  2.0
  F-  -1.0
loop_
 _atom_site_type_symbol
 _atom_site_label
 _atom_site_symmetry_multiplicity
 _atom_site_fract_x
 _atom_site_fract_y
 _atom_site_fract_z
 _atom_site_occupancy
  Rb+  Rb0  1  0.00000000  0.00000000  0.25000000  1
  Rb+  Rb1  1  0.00000000  0.00000000  0.75000000  1
  Rb+  Rb2  1  0.50000000  0.50000000  0.75000000  1
  Rb+  Rb3  1  0.50000000  0.50000000  0.25000000  1
  Ag2+  Ag4  1  0.00000000  0.50000000  0.00000000  1
  Ag2+  Ag5  1  0.50000000  0.00000000  0.00000000  1
  Ag2+  Ag6  1  0.50000000  0.00000000  0.50000000  1
  Ag2+  Ag7  1  0.00000000  0.50000000  0.50000000  1
  F-  F8  1  0.25806016  0.75806016  0.50000000  1
  F-  F9  1  0.74193984  0.75806016  0.00000000  1
  F-  F10  1  0.75806016  0.74193984  0.50000000  1
  F-  F11  1  0.24193984  0.74193984  0.00000000  1
  F-  F12  1  0.00000000  0.50000000  0.25000000  1
  F-  F13  1  0.50000000  0.00000000  0.25000000  1
  F-  F14  1  0.75806016  0.25806016  0.00000000  1
  F-  F15  1  0.24193984  0.25806016  0.50000000  1
  F-  F16  1  0.25806016  0.24193984  0.00000000  1
  F-  F17  1  0.74193984  0.24193984  0.50000000  1
  F-  F18  1  0.50000000  0.00000000  0.75000000  1
  F-  F19  1  0.00000000  0.50000000  0.75000000  1
