# generated using pymatgen
data_CaTiO3
_symmetry_space_group_name_H-M   'P 1'
_cell_length_a   5.37146030
_cell_length_b   5.37146030
_cell_length_c   7.79223922
_cell_angle_alpha   90.00000000
_cell_angle_beta   90.00000000
_cell_angle_gamma   90.00000000
_symmetry_Int_Tables_number   1
_chemical_formula_structural   CaTiO3
_chemical_formula_sum   'Ca4 Ti4 O12'
_cell_volume   224.82625031
_cell_formula_units_Z   4
loop_
 _symmetry_equiv_pos_site_id
 _symmetry_equiv_pos_as_xyz
  1  'x, y, z'
loop_
 _atom_type_symbol
 _atom_type_oxidation_number
  Ca2+  2.0
  Ti4+  4.0
  O2-  -2.0
loop_
 _atom_site_type_symbol
 _atom_site_label
 _atom_site_symmetry_multiplicity
 _atom_site_fract_x
 _atom_site_fract_y
 _atom_site_fract_z
 _atom_site_occupancy
  Ca2+  Ca0  1  0.50000000  0.00000000  0.25000000  1
  Ca2+  Ca1  1  0.00000000  0.50000000  0.25000000  1
  Ca2+  Ca2  1  0.00000000  0.50000000  0.75000000  1
  Ca2+  Ca3  1  0.50000000  0.00000000  0.75000000  1
  Ti4+  Ti4  1  0.50000000  0.50000000  0.00000000  1
  Ti4+  Ti5  1  0.00000000  0.00000000  0.00000000  1
  Ti4+  Ti6  1  0.00000000  0.00000000  0.50000000  1
  Ti4+  Ti7  1  0.50000000  0.50000000  0.50000000  1
  O2-  O8  1  0.30869676  0.80869676  0.00000000  1
  O2-  O9  1  0.19130324  0.30869676  0.00000000  1
  O2-  O10  1  0.80869676  0.69130324  0.00000000  1
  O2-  O11  1  0.69130324  0.19130324  0.00000000  1
  O2-  O12  1  0.50000000  0.50000000  0.25000000  1
  O2-  O13  1  0.00000000  0.00000000  0.25000000  1
  O2-  O14  1  0.80869676  0.30869676  0.50000000  1
  O2-  O15  1  0.69130324  0.80869676  0.50000000  1
  O2-  O16  1  0.30869676  0.19130324  0.50000000  1
  O2-  O17  1  0.19130324  0.69130324  0.50000000  1
  O2-  O18  1  0.00000000  0.00000000  0.75000000  1
  O2-  O19  1  0.50000000  0.50000000  0.75000000  1
