# generated using pymatgen
data_MgFeSiO4
_symmetry_space_group_name_H-M   'P 1'
_cell_length_a   4.81819900
_cell_length_b   6.14530700
_cell_length_c   10.51627800
_cell_angle_alpha   90.00000000
_cell_angle_beta   90.00000000
_cell_angle_gamma   90.00000000
_symmetry_Int_Tables_number   1
_chemical_formula_structural   MgFeSiO4
_chemical_formula_sum   'Mg4 Fe4 Si4 O16'
_cell_volume   311.37975683
_cell_formula_units_Z   4
loop_
 _symmetry_equiv_pos_site_id
 _symmetry_equiv_pos_as_xyz
  1  'x, y, z'
loop_
 _atom_type_symbol
 _atom_type_oxidation_number
  Mg2+  2.0
  Fe2+  2.0
  Si4+  4.0
  O2-  -2.0
loop_
 _atom_site_type_symbol
 _atom_site_label
 _atom_site_symmetry_multiplicity
 _atom_site_fract_x
 _atom_site_fract_y
 _atom_site_fract_z
 _atom_site_occupancy
  Mg2+  Mg0  1  0.00000000  0.50000000  0.50000000  1
  Mg2+  Mg1  1  0.50000000  0.00000000  0.00000000  1
  Mg2+  Mg2  1  0.00000000  0.00000000  0.50000000  1
  Mg2+  Mg3  1  0.50000000  0.50000000  0.00000000  1
  Fe2+  Fe4  1  0.01205900  0.75000000  0.22173250  1
  Fe2+  Fe5  1  0.48794100  0.75000000  0.72173250  1
  Fe2+  Fe6  1  0.98794100  0.25000000  0.77826750  1
  Fe2+  Fe7  1  0.51205900  0.25000000  0.27826750  1
  Si4+  Si8  1  0.42693900  0.25000000  0.59347750  1
  Si4+  Si9  1  0.07306100  0.25000000  0.09347750  1
  Si4+  Si10  1  0.57306100  0.75000000  0.40652250  1
  Si4+  Si11  1  0.92693900  0.75000000  0.90652250  1
  O2-  O12  1  0.76547800  0.25000000  0.58706750  1
  O2-  O13  1  0.73452200  0.25000000  0.08706750  1
  O2-  O14  1  0.23452200  0.75000000  0.41293250  1
  O2-  O15  1  0.26547800  0.75000000  0.91293250  1
  O2-  O16  1  0.22755400  0.25000000  0.95090750  1
  O2-  O17  1  0.27244600  0.25000000  0.45090750  1
  O2-  O18  1  0.77244600  0.75000000  0.04909250  1
  O2-  O19  1  0.72755400  0.75000000  0.54909250  1
  O2-  O20  1  0.28254200  0.46517350  0.66202750  1
  O2-  O21  1  0.21745800  0.03482650  0.16202750  1
  O2-  O22  1  0.71745800  0.96517350  0.33797250  1
  O2-  O23  1  0.78254200  0.53482650  0.83797250  1
  O2-  O24  1  0.71745800  0.53482650  0.33797250  1
  O2-  O25  1  0.78254200  0.96517350  0.83797250  1
  O2-  O26  1  0.28254200  0.03482650  0.66202750  1
  O2-  O27  1  0.21745800  0.46517350  0.16202750  1
