# generated using pymatgen
data_SiC
_symmetry_space_group_name_H-M   'P 1'
_cell_length_a   3.07718370
_cell_length_b   3.07718370
_cell_length_c   20.12563135
_cell_angle_alpha   90.00000000
_cell_angle_beta   90.00000000
_cell_angle_gamma   120.00000000
_symmetry_Int_Tables_number   1
_chemical_formula_structural   SiC
_chemical_formula_sum   'Si8 C8'
_cell_volume   165.03915526
_cell_formula_units_Z   8
loop_
 _symmetry_equiv_pos_site_id
 _symmetry_equiv_pos_as_xyz
  1  'x, y, z'
loop_
 _atom_type_symbol
 _atom_type_oxidation_number
  Si4+  4.0
  C4-  -4.0
loop_
 _atom_site_type_symbol
 _atom_site_label
 _atom_site_symmetry_multiplicity
 _atom_site_fract_x
 _atom_site_fract_y
 _atom_site_fract_z
 _atom_site_occupancy
  Si4+  Si0  1  0.33333333  0.66666667  0.87519892  1
  Si4+  Si1  1  0.33333333  0.66666667  0.62498767  1
  Si4+  Si2  1  0.00000000  0.00000000  0.00008758  1
  Si4+  Si3  1  0.66666667  0.33333333  0.75010472  1
  Si4+  Si4  1  0.66666667  0.33333333  0.37519892  1
  Si4+  Si5  1  0.33333333  0.66666667  0.25010472  1
  Si4+  Si6  1  0.00000000  0.00000000  0.50008758  1
  Si4+  Si7  1  0.66666667  0.33333333  0.12498767  1
  C4-  C8  1  0.33333333  0.66666667  0.34413164  1
  C4-  C9  1  0.66666667  0.33333333  0.21871684  1
  C4-  C10  1  0.66666667  0.33333333  0.84413164  1
  C4-  C11  1  0.00000000  0.00000000  0.59384846  1
  C4-  C12  1  0.33333333  0.66666667  0.96892618  1
  C4-  C13  1  0.00000000  0.00000000  0.09384846  1
  C4-  C14  1  0.33333333  0.66666667  0.71871684  1
  C4-  C15  1  0.66666667  0.33333333  0.46892618  1
