# generated using pymatgen
data_MgTi2O5
_symmetry_space_group_name_H-M   'P 1'
_cell_length_a   3.74069933
_cell_length_b   9.73472360
_cell_length_c   10.00066454
_cell_angle_alpha   90.00000000
_cell_angle_beta   90.00000000
_cell_angle_gamma   90.00000000
_symmetry_Int_Tables_number   1
_chemical_formula_structural   MgTi2O5
_chemical_formula_sum   'Mg4 Ti8 O20'
_cell_volume   364.17093949
_cell_formula_units_Z   4
loop_
 _symmetry_equiv_pos_site_id
 _symmetry_equiv_pos_as_xyz
  1  'x, y, z'
loop_
 _atom_type_symbol
 _atom_type_oxidation_number
  Mg2+  2.0
  Ti4+  4.0
  O2-  -2.0
loop_
 _atom_site_type_symbol
 _atom_site_label
 _atom_site_symmetry_multiplicity
 _atom_site_fract_x
 _atom_site_fract_y
 _atom_site_fract_z
 _atom_site_occupancy
  Mg2+  Mg0  1  0.00000000  0.19642107  0.75000000  1
  Mg2+  Mg1  1  0.50000000  0.30357893  0.25000000  1
  Mg2+  Mg2  1  0.50000000  0.69642107  0.75000000  1
  Mg2+  Mg3  1  0.00000000  0.80357893  0.25000000  1
  Ti4+  Ti4  1  0.50000000  0.36667016  0.56672290  1
  Ti4+  Ti5  1  0.00000000  0.13332984  0.43327710  1
  Ti4+  Ti6  1  0.50000000  0.36667016  0.93327710  1
  Ti4+  Ti7  1  0.00000000  0.13332984  0.06672290  1
  Ti4+  Ti8  1  0.00000000  0.86667016  0.56672290  1
  Ti4+  Ti9  1  0.50000000  0.63332984  0.43327710  1
  Ti4+  Ti10  1  0.00000000  0.86667016  0.93327710  1
  Ti4+  Ti11  1  0.50000000  0.63332984  0.06672290  1
  O2-  O12  1  0.00000000  0.31335040  0.56208557  1
  O2-  O13  1  0.50000000  0.18664960  0.43791443  1
  O2-  O14  1  0.50000000  0.18664960  0.06208557  1
  O2-  O15  1  0.00000000  0.31335040  0.93791443  1
  O2-  O16  1  0.00000000  0.04691074  0.61324876  1
  O2-  O17  1  0.50000000  0.45308926  0.38675124  1
  O2-  O18  1  0.50000000  0.28317015  0.75000000  1
  O2-  O19  1  0.00000000  0.21682985  0.25000000  1
  O2-  O20  1  0.00000000  0.04691074  0.88675124  1
  O2-  O21  1  0.50000000  0.45308926  0.11324876  1
  O2-  O22  1  0.50000000  0.81335040  0.56208557  1
  O2-  O23  1  0.00000000  0.68664960  0.43791443  1
  O2-  O24  1  0.00000000  0.68664960  0.06208557  1
  O2-  O25  1  0.50000000  0.81335040  0.93791443  1
  O2-  O26  1  0.50000000  0.54691074  0.61324876  1
  O2-  O27  1  0.00000000  0.95308926  0.38675124  1
  O2-  O28  1  0.00000000  0.78317015  0.75000000  1
  O2-  O29  1  0.50000000  0.71682985  0.25000000  1
  O2-  O30  1  0.50000000  0.54691074  0.88675124  1
  O2-  O31  1  0.00000000  0.95308926  0.11324876  1
