# generated using pymatgen
data_Sr2CrO4
_symmetry_space_group_name_H-M   'P 1'
_cell_length_a   3.77230395
_cell_length_b   3.77230395
_cell_length_c   12.63237508
_cell_angle_alpha   90.00000000
_cell_angle_beta   90.00000000
_cell_angle_gamma   90.00000000
_symmetry_Int_Tables_number   1
_chemical_formula_structural   Sr2CrO4
_chemical_formula_sum   'Sr4 Cr2 O8'
_cell_volume   179.76219778
_cell_formula_units_Z   2
loop_
 _symmetry_equiv_pos_site_id
 _symmetry_equiv_pos_as_xyz
  1  'x, y, z'
loop_
 _atom_type_symbol
 _atom_type_oxidation_number
  Sr2+  2.0
  Cr4+  4.0
  O2-  -2.0
loop_
 _atom_site_type_symbol
 _atom_site_label
 _atom_site_symmetry_multiplicity
 _atom_site_fract_x
 _atom_site_fract_y
 _atom_site_fract_z
 _atom_site_occupancy
  Sr2+  Sr0  1  0.00000000  0.00000000  0.64628021  1
  Sr2+  Sr1  1  0.50000000  0.50000000  0.85371979  1
  Sr2+  Sr2  1  0.50000000  0.50000000  0.14628021  1
  Sr2+  Sr3  1  0.00000000  0.00000000  0.35371979  1
  Cr4+  Cr4  1  0.00000000  0.00000000  0.00000000  1
  Cr4+  Cr5  1  0.50000000  0.50000000  0.50000000  1
  O2-  O6  1  0.00000000  0.00000000  0.84368432  1
  O2-  O7  1  0.50000000  0.50000000  0.65631568  1
  O2-  O8  1  0.00000000  0.50000000  0.00000000  1
  O2-  O9  1  0.00000000  0.50000000  0.50000000  1
  O2-  O10  1  0.50000000  0.50000000  0.34368432  1
  O2-  O11  1  0.00000000  0.00000000  0.15631568  1
  O2-  O12  1  0.50000000  0.00000000  0.50000000  1
  O2-  O13  1  0.50000000  0.00000000  0.00000000  1
