# generated using pymatgen
data_Ca3Ti2O7
_symmetry_space_group_name_H-M   'P 1'
_cell_length_a   5.41577882
_cell_length_b   19.44292550
_cell_length_c   5.45650973
_cell_angle_alpha   90.00000000
_cell_angle_beta   90.00000000
_cell_angle_gamma   90.00000000
_symmetry_Int_Tables_number   1
_chemical_formula_structural   Ca3Ti2O7
_chemical_formula_sum   'Ca12 Ti8 O28'
_cell_volume   574.56274882
_cell_formula_units_Z   4
loop_
 _symmetry_equiv_pos_site_id
 _symmetry_equiv_pos_as_xyz
  1  'x, y, z'
loop_
 _atom_type_symbol
 _atom_type_oxidation_number
  Ca2+  2.0
  Ti4+  4.0
  O2-  -2.0
loop_
 _atom_site_type_symbol
 _atom_site_label
 _atom_site_symmetry_multiplicity
 _atom_site_fract_x
 _atom_site_fract_y
 _atom_site_fract_z
 _atom_site_occupancy
  Ca2+  Ca0  1  0.25419545  0.00000000  0.03841354  1
  Ca2+  Ca1  1  0.74580455  0.00000000  0.53841354  1
  Ca2+  Ca2  1  0.24169919  0.68748336  0.46287716  1
  Ca2+  Ca3  1  0.25830081  0.81251664  0.96287716  1
  Ca2+  Ca4  1  0.74169919  0.81251664  0.46287716  1
  Ca2+  Ca5  1  0.75830081  0.68748336  0.96287716  1
  Ca2+  Ca6  1  0.75419545  0.50000000  0.03841354  1
  Ca2+  Ca7  1  0.24580455  0.50000000  0.53841354  1
  Ca2+  Ca8  1  0.74169919  0.18748336  0.46287716  1
  Ca2+  Ca9  1  0.75830081  0.31251664  0.96287716  1
  Ca2+  Ca10  1  0.24169919  0.31251664  0.46287716  1
  Ca2+  Ca11  1  0.25830081  0.18748336  0.96287716  1
  Ti4+  Ti12  1  0.74983274  0.59952225  0.49591488  1
  Ti4+  Ti13  1  0.75016726  0.90047775  0.99591488  1
  Ti4+  Ti14  1  0.25016726  0.59952225  0.99591488  1
  Ti4+  Ti15  1  0.24983274  0.90047775  0.49591488  1
  Ti4+  Ti16  1  0.24983274  0.09952225  0.49591488  1
  Ti4+  Ti17  1  0.25016726  0.40047775  0.99591488  1
  Ti4+  Ti18  1  0.75016726  0.09952225  0.99591488  1
  Ti4+  Ti19  1  0.74983274  0.40047775  0.49591488  1
  O2-  O20  1  0.03912085  0.88812442  0.21352369  1
  O2-  O21  1  0.46087915  0.61187558  0.71352369  1
  O2-  O22  1  0.96087915  0.88812442  0.71352369  1
  O2-  O23  1  0.53912085  0.61187558  0.21352369  1
  O2-  O24  1  0.53856417  0.91570127  0.29161137  1
  O2-  O25  1  0.96143583  0.58429873  0.79161137  1
  O2-  O26  1  0.46143583  0.91570127  0.79161137  1
  O2-  O27  1  0.03856416  0.58429873  0.29161137  1
  O2-  O28  1  0.68699486  0.80241580  0.01990600  1
  O2-  O29  1  0.81300514  0.69758420  0.51990600  1
  O2-  O30  1  0.82109644  0.00000000  0.98552126  1
  O2-  O31  1  0.17890356  0.00000000  0.48552126  1
  O2-  O32  1  0.18699486  0.69758420  0.01990600  1
  O2-  O33  1  0.31300514  0.80241580  0.51990600  1
  O2-  O34  1  0.53912085  0.38812442  0.21352369  1
  O2-  O35  1  0.96087915  0.11187558  0.71352369  1
  O2-  O36  1  0.46087915  0.38812442  0.71352369  1
  O2-  O37  1  0.03912085  0.11187558  0.21352369  1
  O2-  O38  1  0.03856416  0.41570127  0.29161137  1
  O2-  O39  1  0.46143584  0.08429873  0.79161137  1
  O2-  O40  1  0.96143583  0.41570127  0.79161137  1
  O2-  O41  1  0.53856416  0.08429873  0.29161137  1
  O2-  O42  1  0.18699486  0.30241580  0.01990600  1
  O2-  O43  1  0.31300514  0.19758420  0.51990600  1
  O2-  O44  1  0.32109644  0.50000000  0.98552126  1
  O2-  O45  1  0.67890356  0.50000000  0.48552126  1
  O2-  O46  1  0.68699486  0.19758420  0.01990600  1
  O2-  O47  1  0.81300514  0.30241580  0.51990600  1
