# generated using pymatgen
data_WCl2
_symmetry_space_group_name_H-M   'P 1'
_cell_length_a   11.44937978
_cell_length_b   14.71588444
_cell_length_c   11.42847886
_cell_angle_alpha   90.00000000
_cell_angle_beta   90.00000000
_cell_angle_gamma   90.00000000
_symmetry_Int_Tables_number   1
_chemical_formula_structural   WCl2
_chemical_formula_sum   'W24 Cl48'
_cell_volume   1925.55868621
_cell_formula_units_Z   24
loop_
 _symmetry_equiv_pos_site_id
 _symmetry_equiv_pos_as_xyz
  1  'x, y, z'
loop_
 _atom_type_symbol
 _atom_type_oxidation_number
  W2+  2.0
  Cl-  -1.0
loop_
 _atom_site_type_symbol
 _atom_site_label
 _atom_site_symmetry_multiplicity
 _atom_site_fract_x
 _atom_site_fract_y
 _atom_site_fract_z
 _atom_site_occupancy
  W2+  W0  1  0.50000000  0.62556074  0.00000000  1
  W2+  W1  1  0.50000000  0.37443926  0.00000000  1
  W2+  W2  1  0.50000000  0.87443926  0.50000000  1
  W2+  W3  1  0.50000000  0.12556074  0.50000000  1
  W2+  W4  1  0.43167027  0.00000000  0.35405891  1
  W2+  W5  1  0.56832973  0.00000000  0.64594109  1
  W2+  W6  1  0.06832973  0.00000000  0.85405891  1
  W2+  W7  1  0.93167027  0.00000000  0.14594109  1
  W2+  W8  1  0.14567120  0.00000000  0.06843196  1
  W2+  W9  1  0.85432880  0.00000000  0.93156804  1
  W2+  W10  1  0.35432880  0.00000000  0.56843196  1
  W2+  W11  1  0.64567120  0.00000000  0.43156804  1
  W2+  W12  1  0.00000000  0.12556074  0.00000000  1
  W2+  W13  1  0.00000000  0.87443926  0.00000000  1
  W2+  W14  1  0.00000000  0.37443926  0.50000000  1
  W2+  W15  1  0.00000000  0.62556074  0.50000000  1
  W2+  W16  1  0.93167027  0.50000000  0.35405891  1
  W2+  W17  1  0.06832973  0.50000000  0.64594109  1
  W2+  W18  1  0.56832973  0.50000000  0.85405891  1
  W2+  W19  1  0.43167027  0.50000000  0.14594109  1
  W2+  W20  1  0.64567120  0.50000000  0.06843196  1
  W2+  W21  1  0.35432880  0.50000000  0.93156804  1
  W2+  W22  1  0.85432880  0.50000000  0.56843196  1
  W2+  W23  1  0.14567120  0.50000000  0.43156804  1
  Cl-  Cl24  1  0.50000000  0.78775890  0.00000000  1
  Cl-  Cl25  1  0.50000000  0.21224110  0.00000000  1
  Cl-  Cl26  1  0.50000000  0.71224110  0.50000000  1
  Cl-  Cl27  1  0.50000000  0.28775890  0.50000000  1
  Cl-  Cl28  1  0.57507232  0.61956980  0.20708220  1
  Cl-  Cl29  1  0.42492768  0.38043020  0.79291780  1
  Cl-  Cl30  1  0.42492768  0.88043020  0.70708220  1
  Cl-  Cl31  1  0.57507232  0.88043020  0.29291780  1
  Cl-  Cl32  1  0.57507232  0.11956980  0.29291780  1
  Cl-  Cl33  1  0.42492768  0.11956980  0.70708220  1
  Cl-  Cl34  1  0.42492768  0.61956980  0.79291780  1
  Cl-  Cl35  1  0.57507232  0.38043020  0.20708220  1
  Cl-  Cl36  1  0.35036756  0.00000000  0.14927270  1
  Cl-  Cl37  1  0.64963244  0.00000000  0.85072730  1
  Cl-  Cl38  1  0.14963244  0.00000000  0.64927270  1
  Cl-  Cl39  1  0.85036756  0.00000000  0.35072730  1
  Cl-  Cl40  1  0.79330319  0.88029888  0.07510234  1
  Cl-  Cl41  1  0.20669681  0.11970112  0.92489766  1
  Cl-  Cl42  1  0.70669681  0.11970112  0.57510234  1
  Cl-  Cl43  1  0.29330320  0.11970112  0.42489766  1
  Cl-  Cl44  1  0.29330320  0.88029888  0.42489766  1
  Cl-  Cl45  1  0.70669681  0.88029888  0.57510234  1
  Cl-  Cl46  1  0.20669681  0.88029888  0.92489766  1
  Cl-  Cl47  1  0.79330319  0.11970112  0.07510234  1
  Cl-  Cl48  1  0.00000000  0.28775890  0.00000000  1
  Cl-  Cl49  1  0.00000000  0.71224110  0.00000000  1
  Cl-  Cl50  1  0.00000000  0.21224110  0.50000000  1
  Cl-  Cl51  1  0.00000000  0.78775890  0.50000000  1
  Cl-  Cl52  1  0.07507232  0.11956980  0.20708220  1
  Cl-  Cl53  1  0.92492768  0.88043020  0.79291780  1
  Cl-  Cl54  1  0.92492768  0.38043020  0.70708220  1
  Cl-  Cl55  1  0.07507232  0.38043020  0.29291780  1
  Cl-  Cl56  1  0.07507232  0.61956980  0.29291780  1
  Cl-  Cl57  1  0.92492768  0.61956980  0.70708220  1
  Cl-  Cl58  1  0.92492768  0.11956980  0.79291780  1
  Cl-  Cl59  1  0.07507232  0.88043020  0.20708220  1
  Cl-  Cl60  1  0.85036756  0.50000000  0.14927270  1
  Cl-  Cl61  1  0.14963244  0.50000000  0.85072730  1
  Cl-  Cl62  1  0.64963244  0.50000000  0.64927270  1
  Cl-  Cl63  1  0.35036756  0.50000000  0.35072730  1
  Cl-  Cl64  1  0.29330320  0.38029888  0.07510234  1
  Cl-  Cl65  1  0.70669681  0.61970112  0.92489766  1
  Cl-  Cl66  1  0.20669680  0.61970112  0.57510234  1
  Cl-  Cl67  1  0.79330320  0.61970112  0.42489766  1
  Cl-  Cl68  1  0.79330320  0.38029888  0.42489766  1
  Cl-  Cl69  1  0.20669680  0.38029888  0.57510234  1
  Cl-  Cl70  1  0.70669681  0.38029888  0.92489766  1
  Cl-  Cl71  1  0.29330320  0.61970112  0.07510234  1
