# generated using pymatgen
data_BaLiSmS3
_symmetry_space_group_name_H-M   'P 1'
_cell_length_a   4.15860701
_cell_length_b   7.12399690
_cell_length_c   10.53382800
_cell_angle_alpha   89.99999797
_cell_angle_beta   89.99997534
_cell_angle_gamma   106.96091354
_symmetry_Int_Tables_number   1
_chemical_formula_structural   BaLiSmS3
_chemical_formula_sum   'Ba2 Li2 Sm2 S6'
_cell_volume   298.50018911
_cell_formula_units_Z   2
loop_
 _symmetry_equiv_pos_site_id
 _symmetry_equiv_pos_as_xyz
  1  'x, y, z'
loop_
 _atom_site_type_symbol
 _atom_site_label
 _atom_site_symmetry_multiplicity
 _atom_site_fract_x
 _atom_site_fract_y
 _atom_site_fract_z
 _atom_site_occupancy
  Ba  Ba0  1  0.25486200  0.50969000  0.25000100  1
  Ba  Ba1  1  0.74513600  0.49031200  0.75000000  1
  Li  Li2  1  0.52915600  0.05851800  0.25000000  1
  Li  Li3  1  0.47083900  0.94148200  0.75000000  1
  Sm  Sm4  1  0.99999800  0.00000000  0.00000100  1
  Sm  Sm5  1  0.99999800  0.00000000  0.50000000  1
  S  S6  1  0.63144700  0.26295500  0.06518100  1
  S  S7  1  0.93255800  0.86505100  0.25000000  1
  S  S8  1  0.63144700  0.26295500  0.43482000  1
  S  S9  1  0.36855100  0.73704500  0.56518100  1
  S  S10  1  0.06743900  0.13494900  0.75000000  1
  S  S11  1  0.36855100  0.73704500  0.93482000  1
