# generated using pymatgen
data_Li2Dy5Zr2(P4Ir5)3
_symmetry_space_group_name_H-M   'P 1'
_cell_length_a   12.71353390
_cell_length_b   12.86513758
_cell_length_c   3.96003100
_cell_angle_alpha   90.00000000
_cell_angle_beta   90.00000000
_cell_angle_gamma   118.82369321
_symmetry_Int_Tables_number   1
_chemical_formula_structural   Li2Dy5Zr2(P4Ir5)3
_chemical_formula_sum   'Li2 Dy5 Zr2 P12 Ir15'
_cell_volume   567.46182290
_cell_formula_units_Z   1
loop_
 _symmetry_equiv_pos_site_id
 _symmetry_equiv_pos_as_xyz
  1  'x, y, z'
loop_
 _atom_site_type_symbol
 _atom_site_label
 _atom_site_symmetry_multiplicity
 _atom_site_fract_x
 _atom_site_fract_y
 _atom_site_fract_z
 _atom_site_occupancy
  Li  Li0  1  0.52391200  0.88412800  0.00000000  1
  Li  Li1  1  0.45192700  0.01055800  0.50000000  1
  Dy  Dy2  1  0.32637200  0.65999700  0.50000000  1
  Dy  Dy3  1  0.66443000  0.33348900  0.50000000  1
  Dy  Dy4  1  0.99977300  0.81444800  0.00000000  1
  Dy  Dy5  1  0.18896100  0.18794200  0.00000000  1
  Dy  Dy6  1  0.81487100  0.00136800  0.00000000  1
  Zr  Zr7  1  0.99703800  0.44452100  0.50000000  1
  Zr  Zr8  1  0.55205400  0.55515600  0.50000000  1
  P  P9  1  0.00427500  0.65249000  0.50000000  1
  P  P10  1  0.35630700  0.34856100  0.50000000  1
  P  P11  1  0.64533300  0.00825400  0.50000000  1
  P  P12  1  0.51896100  0.69078400  0.00000000  1
  P  P13  1  0.30424400  0.81894400  0.00000000  1
  P  P14  1  0.16580200  0.48057400  0.00000000  1
  P  P15  1  0.48629500  0.16661900  0.00000000  1
  P  P16  1  0.68367700  0.51754400  0.00000000  1
  P  P17  1  0.82781500  0.30943900  0.00000000  1
  P  P18  1  0.00209500  0.17462600  0.50000000  1
  P  P19  1  0.82295200  0.82523100  0.50000000  1
  P  P20  1  0.18190100  0.99968300  0.50000000  1
  Ir  Ir21  1  0.11805200  0.64033900  0.00000000  1
  Ir  Ir22  1  0.35829400  0.49826700  0.00000000  1
  Ir  Ir23  1  0.48479600  0.35489200  0.00000000  1
  Ir  Ir24  1  0.85639500  0.49884400  0.00000000  1
  Ir  Ir25  1  0.64452200  0.12377800  0.00000000  1
  Ir  Ir26  1  0.00226200  0.27677200  0.00000000  1
  Ir  Ir27  1  0.72261300  0.72590300  0.00000000  1
  Ir  Ir28  1  0.28136800  0.99763800  0.00000000  1
  Ir  Ir29  1  0.61394900  0.80708900  0.50000000  1
  Ir  Ir30  1  0.20392000  0.82245500  0.50000000  1
  Ir  Ir31  1  0.18083300  0.36959800  0.50000000  1
  Ir  Ir32  1  0.37758800  0.17417600  0.50000000  1
  Ir  Ir33  1  0.81024800  0.63153900  0.50000000  1
  Ir  Ir34  1  0.82332200  0.19633900  0.50000000  1
  Ir  Ir35  1  0.00284400  0.99801300  0.50000000  1
