# generated using pymatgen
data_Li2Yb3AlGe3
_symmetry_space_group_name_H-M   'P 1'
_cell_length_a   7.16535546
_cell_length_b   7.16535559
_cell_length_c   4.32047300
_cell_angle_alpha   90.00000000
_cell_angle_beta   90.00000000
_cell_angle_gamma   121.09721075
_symmetry_Int_Tables_number   1
_chemical_formula_structural   Li2Yb3AlGe3
_chemical_formula_sum   'Li2 Yb3 Al1 Ge3'
_cell_volume   189.94540229
_cell_formula_units_Z   1
loop_
 _symmetry_equiv_pos_site_id
 _symmetry_equiv_pos_as_xyz
  1  'x, y, z'
loop_
 _atom_site_type_symbol
 _atom_site_label
 _atom_site_symmetry_multiplicity
 _atom_site_fract_x
 _atom_site_fract_y
 _atom_site_fract_z
 _atom_site_occupancy
  Li  Li0  1  0.23522900  0.99761400  0.50000000  1
  Li  Li1  1  0.99761400  0.23522900  0.50000000  1
  Yb  Yb2  1  0.00683400  0.57241500  0.00000000  1
  Yb  Yb3  1  0.42606600  0.42606600  0.00000000  1
  Yb  Yb4  1  0.57241500  0.00683400  0.00000000  1
  Al  Al5  1  0.75767100  0.75767100  0.50000000  1
  Ge  Ge6  1  0.34597500  0.67127700  0.50000000  1
  Ge  Ge7  1  0.67127700  0.34597500  0.50000000  1
  Ge  Ge8  1  0.98692100  0.98692100  0.00000000  1
