# generated using pymatgen
data_Li3NdTh2Pt3
_symmetry_space_group_name_H-M   'P 1'
_cell_length_a   7.35994838
_cell_length_b   7.35994725
_cell_length_c   4.11536500
_cell_angle_alpha   90.00000000
_cell_angle_beta   90.00000000
_cell_angle_gamma   120.42872172
_symmetry_Int_Tables_number   1
_chemical_formula_structural   Li3NdTh2Pt3
_chemical_formula_sum   'Li3 Nd1 Th2 Pt3'
_cell_volume   192.21886795
_cell_formula_units_Z   1
loop_
 _symmetry_equiv_pos_site_id
 _symmetry_equiv_pos_as_xyz
  1  'x, y, z'
loop_
 _atom_site_type_symbol
 _atom_site_label
 _atom_site_symmetry_multiplicity
 _atom_site_fract_x
 _atom_site_fract_y
 _atom_site_fract_z
 _atom_site_occupancy
  Li  Li0  1  0.76334600  0.76334600  0.00000000  1
  Li  Li1  1  0.22960300  0.00339300  0.00000000  1
  Li  Li2  1  0.00339300  0.22960300  0.00000000  1
  Nd  Nd3  1  0.40586700  0.40586700  0.50000000  1
  Th  Th4  1  0.59605500  0.00050800  0.50000000  1
  Th  Th5  1  0.00050800  0.59605500  0.50000000  1
  Pt  Pt6  1  0.67916700  0.33205000  0.00000000  1
  Pt  Pt7  1  0.33205000  0.67916700  0.00000000  1
  Pt  Pt8  1  0.99001000  0.99001000  0.50000000  1
