# generated using pymatgen
data_Li3Pr16InRh4
_symmetry_space_group_name_H-M   'P 1'
_cell_length_a   10.06414915
_cell_length_b   10.02791187
_cell_length_c   10.02791200
_cell_angle_alpha   59.99999957
_cell_angle_beta   60.11903617
_cell_angle_gamma   60.11904345
_symmetry_Int_Tables_number   1
_chemical_formula_structural   Li3Pr16InRh4
_chemical_formula_sum   'Li3 Pr16 In1 Rh4'
_cell_volume   716.90592382
_cell_formula_units_Z   1
loop_
 _symmetry_equiv_pos_site_id
 _symmetry_equiv_pos_as_xyz
  1  'x, y, z'
loop_
 _atom_site_type_symbol
 _atom_site_label
 _atom_site_symmetry_multiplicity
 _atom_site_fract_x
 _atom_site_fract_y
 _atom_site_fract_z
 _atom_site_occupancy
  Li  Li0  1  0.42742300  0.42238300  0.42238300  1
  Li  Li1  1  0.42742300  0.42238300  0.72780900  1
  Li  Li2  1  0.42742300  0.72780900  0.42238300  1
  Pr  Pr3  1  0.81060300  0.80903800  0.19018000  1
  Pr  Pr4  1  0.81060300  0.19018000  0.80903800  1
  Pr  Pr5  1  0.18333000  0.18584900  0.81541000  1
  Pr  Pr6  1  0.65221800  0.04390400  0.65193900  1
  Pr  Pr7  1  0.06364400  0.06262100  0.43686800  1
  Pr  Pr8  1  0.43639700  0.43564800  0.06397800  1
  Pr  Pr9  1  0.65221800  0.65193900  0.65193900  1
  Pr  Pr10  1  0.81060300  0.19018000  0.19018000  1
  Pr  Pr11  1  0.18333000  0.81541000  0.81541000  1
  Pr  Pr12  1  0.04036500  0.65321200  0.65321200  1
  Pr  Pr13  1  0.43639700  0.06397800  0.06397800  1
  Pr  Pr14  1  0.43639700  0.06397800  0.43564800  1
  Pr  Pr15  1  0.06364400  0.43686800  0.06262100  1
  Pr  Pr16  1  0.65221800  0.65193900  0.04390400  1
  Pr  Pr17  1  0.18333000  0.81541000  0.18584900  1
  Pr  Pr18  1  0.06364400  0.43686800  0.43686800  1
  In  In19  1  0.74148700  0.41950400  0.41950400  1
  Rh  Rh20  1  0.85752500  0.42797700  0.85725000  1
  Rh  Rh21  1  0.85752500  0.85725000  0.85725000  1
  Rh  Rh22  1  0.85752500  0.85725000  0.42797700  1
  Rh  Rh23  1  0.42473000  0.85842400  0.85842400  1
