# generated using pymatgen
data_Li4La3PrSi8
_symmetry_space_group_name_H-M   'P 1'
_cell_length_a   3.91208700
_cell_length_b   7.80856601
_cell_length_c   10.71082029
_cell_angle_alpha   89.95961565
_cell_angle_beta   90.00000000
_cell_angle_gamma   90.00000000
_symmetry_Int_Tables_number   1
_chemical_formula_structural   Li4La3PrSi8
_chemical_formula_sum   'Li4 La3 Pr1 Si8'
_cell_volume   327.19180303
_cell_formula_units_Z   1
loop_
 _symmetry_equiv_pos_site_id
 _symmetry_equiv_pos_as_xyz
  1  'x, y, z'
loop_
 _atom_site_type_symbol
 _atom_site_label
 _atom_site_symmetry_multiplicity
 _atom_site_fract_x
 _atom_site_fract_y
 _atom_site_fract_z
 _atom_site_occupancy
  Li  Li0  1  0.25000000  0.99638500  0.39015500  1
  Li  Li1  1  0.75000000  0.00411300  0.60901600  1
  Li  Li2  1  0.25000000  0.49642900  0.11119100  1
  Li  Li3  1  0.75000000  0.50332300  0.88991700  1
  La  La4  1  0.25000000  0.13701100  0.86603800  1
  La  La5  1  0.75000000  0.86215900  0.13463500  1
  La  La6  1  0.25000000  0.63732400  0.63430800  1
  Pr  Pr7  1  0.75000000  0.36467300  0.36576800  1
  Si  Si8  1  0.75000000  0.27605600  0.07408500  1
  Si  Si9  1  0.25000000  0.72495600  0.92722400  1
  Si  Si10  1  0.75000000  0.77171500  0.42766100  1
  Si  Si11  1  0.25000000  0.22532400  0.57132000  1
  Si  Si12  1  0.75000000  0.83203900  0.82216600  1
  Si  Si13  1  0.25000000  0.16787600  0.17878700  1
  Si  Si14  1  0.75000000  0.33303200  0.67608600  1
  Si  Si15  1  0.25000000  0.66758200  0.32164300  1
