# generated using pymatgen
data_Li5B2Pt5
_symmetry_space_group_name_H-M   'P 1'
_cell_length_a   6.76677528
_cell_length_b   6.87868073
_cell_length_c   6.80478896
_cell_angle_alpha   90.38868465
_cell_angle_beta   90.21723862
_cell_angle_gamma   89.33932060
_symmetry_Int_Tables_number   1
_chemical_formula_structural   Li5B2Pt5
_chemical_formula_sum   'Li10 B4 Pt10'
_cell_volume   316.70849006
_cell_formula_units_Z   2
loop_
 _symmetry_equiv_pos_site_id
 _symmetry_equiv_pos_as_xyz
  1  'x, y, z'
loop_
 _atom_site_type_symbol
 _atom_site_label
 _atom_site_symmetry_multiplicity
 _atom_site_fract_x
 _atom_site_fract_y
 _atom_site_fract_z
 _atom_site_occupancy
  Li  Li0  1  0.30346200  0.30505200  0.27151700  1
  Li  Li1  1  0.03780700  0.45797000  0.54615000  1
  Li  Li2  1  0.57654500  0.04318300  0.42715700  1
  Li  Li3  1  0.45367800  0.56421000  0.06591800  1
  Li  Li4  1  0.18619600  0.69188500  0.81861600  1
  Li  Li5  1  0.94420300  0.95160200  0.96319800  1
  Li  Li6  1  0.80947500  0.18826100  0.69179200  1
  Li  Li7  1  0.71213000  0.78545000  0.20483900  1
  Li  Li8  1  0.20969100  0.04653000  0.61618000  1
  Li  Li9  1  0.45368200  0.37880700  0.71293300  1
  B  B10  1  0.86949400  0.38016100  0.12679500  1
  B  B11  1  0.35942100  0.12209700  0.90588000  1
  B  B12  1  0.62923700  0.64901100  0.61145200  1
  B  B13  1  0.10307000  0.86829500  0.35007100  1
  Pt  Pt14  1  0.06916800  0.61186500  0.17813700  1
  Pt  Pt15  1  0.94719000  0.13463100  0.31874600  1
  Pt  Pt16  1  0.32320000  0.92957700  0.13787700  1
  Pt  Pt17  1  0.67124700  0.43284900  0.38843300  1
  Pt  Pt18  1  0.54782400  0.89363600  0.79618700  1
  Pt  Pt19  1  0.62578300  0.19517700  0.05387100  1
  Pt  Pt20  1  0.35146600  0.68784800  0.46780400  1
  Pt  Pt21  1  0.89401900  0.82143200  0.57488300  1
  Pt  Pt22  1  0.12342100  0.30503800  0.90860600  1
  Pt  Pt23  1  0.79859400  0.55543400  0.86295700  1
