# generated using pymatgen
data_Li6Ta6Ir11Ru
_symmetry_space_group_name_H-M   'P 1'
_cell_length_a   4.36323100
_cell_length_b   6.14034900
_cell_length_c   13.06122500
_cell_angle_alpha   89.99988699
_cell_angle_beta   90.00015336
_cell_angle_gamma   90.00029374
_symmetry_Int_Tables_number   1
_chemical_formula_structural   Li6Ta6Ir11Ru
_chemical_formula_sum   'Li6 Ta6 Ir11 Ru1'
_cell_volume   349.93321997
_cell_formula_units_Z   1
loop_
 _symmetry_equiv_pos_site_id
 _symmetry_equiv_pos_as_xyz
  1  'x, y, z'
loop_
 _atom_site_type_symbol
 _atom_site_label
 _atom_site_symmetry_multiplicity
 _atom_site_fract_x
 _atom_site_fract_y
 _atom_site_fract_z
 _atom_site_occupancy
  Li  Li0  1  0.99999900  0.00026600  0.99974800  1
  Li  Li1  1  0.49935600  0.49973300  0.16647100  1
  Li  Li2  1  0.99935600  0.00030600  0.33341000  1
  Li  Li3  1  0.49999600  0.49971500  0.50012600  1
  Li  Li4  1  0.00064000  0.00026800  0.66683500  1
  Li  Li5  1  0.50065600  0.49966400  0.83340900  1
  Ta  Ta6  1  0.00001500  0.50194300  0.99786600  1
  Ta  Ta7  1  0.49958000  0.00014500  0.16638300  1
  Ta  Ta8  1  0.99959400  0.49980300  0.33332800  1
  Ta  Ta9  1  0.49999800  0.00013300  0.50028400  1
  Ta  Ta10  1  0.00040800  0.50193300  0.66881600  1
  Ta  Ta11  1  0.50039600  0.99594500  0.83332700  1
  Ir  Ir12  1  0.50000100  0.25062800  0.00025100  1
  Ir  Ir13  1  0.50001900  0.74945100  0.00020900  1
  Ir  Ir14  1  0.99958400  0.24998200  0.16665800  1
  Ir  Ir15  1  0.99958900  0.75055000  0.16688800  1
  Ir  Ir16  1  0.49958800  0.25067900  0.33332300  1
  Ir  Ir17  1  0.49959000  0.74928500  0.33332300  1
  Ir  Ir18  1  0.99999700  0.24999700  0.50001800  1
  Ir  Ir19  1  0.99999700  0.75054200  0.49978600  1
  Ir  Ir20  1  0.50042100  0.25064300  0.66642800  1
  Ir  Ir21  1  0.50042200  0.74943500  0.66647300  1
  Ir  Ir22  1  0.00041500  0.24834700  0.83332300  1
  Ru  Ru23  1  0.00038300  0.75060800  0.83331500  1
