# generated using pymatgen
data_Li8Tb8Sn7Sb
_symmetry_space_group_name_H-M   'P 1'
_cell_length_a   9.39968900
_cell_length_b   9.39968835
_cell_length_c   7.34190800
_cell_angle_alpha   90.00000000
_cell_angle_beta   90.00000000
_cell_angle_gamma   119.99999877
_symmetry_Int_Tables_number   1
_chemical_formula_structural   Li8Tb8Sn7Sb
_chemical_formula_sum   'Li8 Tb8 Sn7 Sb1'
_cell_volume   561.78031149
_cell_formula_units_Z   1
loop_
 _symmetry_equiv_pos_site_id
 _symmetry_equiv_pos_as_xyz
  1  'x, y, z'
loop_
 _atom_site_type_symbol
 _atom_site_label
 _atom_site_symmetry_multiplicity
 _atom_site_fract_x
 _atom_site_fract_y
 _atom_site_fract_z
 _atom_site_occupancy
  Li  Li0  1  0.16653000  0.33306100  0.21271000  1
  Li  Li1  1  0.16653000  0.83347000  0.21271000  1
  Li  Li2  1  0.66693900  0.83347000  0.21271000  1
  Li  Li3  1  0.66666700  0.33333300  0.32444300  1
  Li  Li4  1  0.83325800  0.66651600  0.71278100  1
  Li  Li5  1  0.33348400  0.16674200  0.71278100  1
  Li  Li6  1  0.83325800  0.16674200  0.71278100  1
  Li  Li7  1  0.33333300  0.66666700  0.82629500  1
  Tb  Tb8  1  0.00000000  0.00000000  0.99980800  1
  Tb  Tb9  1  0.51213100  0.02426200  0.00475700  1
  Tb  Tb10  1  0.51213100  0.48786900  0.00475700  1
  Tb  Tb11  1  0.97573800  0.48786900  0.00475700  1
  Tb  Tb12  1  0.00000000  0.00000000  0.50048300  1
  Tb  Tb13  1  0.49030600  0.98061100  0.50787200  1
  Tb  Tb14  1  0.01938900  0.50969400  0.50787200  1
  Tb  Tb15  1  0.49030600  0.50969400  0.50787200  1
  Sn  Sn16  1  0.83305600  0.66611200  0.26955100  1
  Sn  Sn17  1  0.33388800  0.16694400  0.26955100  1
  Sn  Sn18  1  0.83305600  0.16694400  0.26955100  1
  Sn  Sn19  1  0.66666700  0.33333300  0.73762500  1
  Sn  Sn20  1  0.16734100  0.33468100  0.76875500  1
  Sn  Sn21  1  0.16734100  0.83265900  0.76875500  1
  Sn  Sn22  1  0.66531900  0.83265900  0.76875500  1
  Sb  Sb23  1  0.33333300  0.66666700  0.24004700  1
