# generated using pymatgen
data_LiEu2Ga5Ni4
_symmetry_space_group_name_H-M   'P 1'
_cell_length_a   6.33389538
_cell_length_b   6.33389509
_cell_length_c   5.15576100
_cell_angle_alpha   90.00000000
_cell_angle_beta   90.00000000
_cell_angle_gamma   103.74419285
_symmetry_Int_Tables_number   1
_chemical_formula_structural   LiEu2Ga5Ni4
_chemical_formula_sum   'Li1 Eu2 Ga5 Ni4'
_cell_volume   200.91737529
_cell_formula_units_Z   1
loop_
 _symmetry_equiv_pos_site_id
 _symmetry_equiv_pos_as_xyz
  1  'x, y, z'
loop_
 _atom_site_type_symbol
 _atom_site_label
 _atom_site_symmetry_multiplicity
 _atom_site_fract_x
 _atom_site_fract_y
 _atom_site_fract_z
 _atom_site_occupancy
  Li  Li0  1  0.05573500  0.05573500  0.25000000  1
  Eu  Eu1  1  0.66167800  0.66167800  0.25000000  1
  Eu  Eu2  1  0.34787500  0.34787500  0.75000000  1
  Ga  Ga3  1  0.95403200  0.95403200  0.75000000  1
  Ga  Ga4  1  0.08366600  0.46045000  0.25000000  1
  Ga  Ga5  1  0.53298700  0.91161000  0.75000000  1
  Ga  Ga6  1  0.91161000  0.53298700  0.75000000  1
  Ga  Ga7  1  0.46045000  0.08366600  0.25000000  1
  Ni  Ni8  1  0.20762800  0.78835600  0.49942300  1
  Ni  Ni9  1  0.20762800  0.78835600  0.00057700  1
  Ni  Ni10  1  0.78835600  0.20762800  0.49942300  1
  Ni  Ni11  1  0.78835600  0.20762800  0.00057700  1
