# generated using pymatgen
data_LiHo3As6Ir7
_symmetry_space_group_name_H-M   'P 1'
_cell_length_a   7.26251540
_cell_length_b   7.20348157
_cell_length_c   7.20348127
_cell_angle_alpha   109.30461278
_cell_angle_beta   109.63731869
_cell_angle_gamma   109.63732015
_symmetry_Int_Tables_number   1
_chemical_formula_structural   LiHo3As6Ir7
_chemical_formula_sum   'Li1 Ho3 As6 Ir7'
_cell_volume   289.50474949
_cell_formula_units_Z   1
loop_
 _symmetry_equiv_pos_site_id
 _symmetry_equiv_pos_as_xyz
  1  'x, y, z'
loop_
 _atom_site_type_symbol
 _atom_site_label
 _atom_site_symmetry_multiplicity
 _atom_site_fract_x
 _atom_site_fract_y
 _atom_site_fract_z
 _atom_site_occupancy
  Li  Li0  1  0.50000000  0.00000000  0.00000000  1
  Ho  Ho1  1  0.00000000  0.00000000  0.50000000  1
  Ho  Ho2  1  0.00000000  0.50000000  0.00000000  1
  Ho  Ho3  1  0.50000000  0.50000000  0.50000000  1
  As  As4  1  0.67791700  0.68792100  0.00000000  1
  As  As5  1  0.32208300  0.31207900  0.00000000  1
  As  As6  1  0.01000400  0.68792100  0.68792100  1
  As  As7  1  0.98999600  0.31207900  0.31207900  1
  As  As8  1  0.67791700  0.00000000  0.68792100  1
  As  As9  1  0.32208300  0.00000000  0.31207900  1
  Ir  Ir10  1  0.00000000  0.00000000  0.00000000  1
  Ir  Ir11  1  0.25015600  0.50031200  0.75015600  1
  Ir  Ir12  1  0.74984400  0.24984400  0.49968800  1
  Ir  Ir13  1  0.50000000  0.24984400  0.75015600  1
  Ir  Ir14  1  0.50000000  0.75015600  0.24984400  1
  Ir  Ir15  1  0.74984400  0.49968800  0.24984400  1
  Ir  Ir16  1  0.25015600  0.75015600  0.50031200  1
