# generated using pymatgen
data_LiLa4ZnSi6
_symmetry_space_group_name_H-M   'P 1'
_cell_length_a   8.42796465
_cell_length_b   8.31911621
_cell_length_c   6.03956477
_cell_angle_alpha   69.82718459
_cell_angle_beta   67.90081483
_cell_angle_gamma   42.27200570
_symmetry_Int_Tables_number   1
_chemical_formula_structural   LiLa4ZnSi6
_chemical_formula_sum   'Li1 La4 Zn1 Si6'
_cell_volume   262.40517323
_cell_formula_units_Z   1
loop_
 _symmetry_equiv_pos_site_id
 _symmetry_equiv_pos_as_xyz
  1  'x, y, z'
loop_
 _atom_site_type_symbol
 _atom_site_label
 _atom_site_symmetry_multiplicity
 _atom_site_fract_x
 _atom_site_fract_y
 _atom_site_fract_z
 _atom_site_occupancy
  Li  Li0  1  0.33396600  0.33396600  0.66603400  1
  La  La1  1  0.74974100  0.74974100  0.75025900  1
  La  La2  1  0.75633100  0.24470200  0.75529800  1
  La  La3  1  0.24974100  0.24974100  0.25025900  1
  La  La4  1  0.24470200  0.75633100  0.24366900  1
  Zn  Zn5  1  0.66634000  0.66634000  0.33366000  1
  Si  Si6  1  0.83310900  0.33117700  0.16689100  1
  Si  Si7  1  0.66534500  0.16829900  0.33465500  1
  Si  Si8  1  0.16829900  0.66534500  0.83170100  1
  Si  Si9  1  0.33117700  0.83310900  0.66882300  1
  Si  Si10  1  0.16627600  0.16627600  0.83372400  1
  Si  Si11  1  0.83497300  0.83497300  0.16502700  1
