# generated using pymatgen
data_LiSm4Ga4Ru3
_symmetry_space_group_name_H-M   'P 1'
_cell_length_a   4.61158800
_cell_length_b   7.34816579
_cell_length_c   7.19534672
_cell_angle_alpha   90.81874731
_cell_angle_beta   90.00000000
_cell_angle_gamma   90.00000000
_symmetry_Int_Tables_number   1
_chemical_formula_structural   LiSm4Ga4Ru3
_chemical_formula_sum   'Li1 Sm4 Ga4 Ru3'
_cell_volume   243.80175627
_cell_formula_units_Z   1
loop_
 _symmetry_equiv_pos_site_id
 _symmetry_equiv_pos_as_xyz
  1  'x, y, z'
loop_
 _atom_site_type_symbol
 _atom_site_label
 _atom_site_symmetry_multiplicity
 _atom_site_fract_x
 _atom_site_fract_y
 _atom_site_fract_z
 _atom_site_occupancy
  Li  Li0  1  0.75000000  0.15469400  0.06682400  1
  Sm  Sm1  1  0.25000000  0.01389000  0.31147900  1
  Sm  Sm2  1  0.25000000  0.52513600  0.19802500  1
  Sm  Sm3  1  0.75000000  0.97346900  0.68961600  1
  Sm  Sm4  1  0.75000000  0.49116900  0.79667800  1
  Ga  Ga5  1  0.25000000  0.69831000  0.60493000  1
  Ga  Ga6  1  0.25000000  0.19059800  0.87826200  1
  Ga  Ga7  1  0.75000000  0.30029200  0.40820500  1
  Ga  Ga8  1  0.75000000  0.79840500  0.10178200  1
  Ru  Ru9  1  0.25000000  0.34789700  0.56479000  1
  Ru  Ru10  1  0.25000000  0.84874700  0.94430900  1
  Ru  Ru11  1  0.75000000  0.65739300  0.43509800  1
