# generated using pymatgen
data_LiZr7(Si4Ru3)4
_symmetry_space_group_name_H-M   'P 1'
_cell_length_a   9.91806087
_cell_length_b   9.91742943
_cell_length_c   13.38535079
_cell_angle_alpha   53.77446996
_cell_angle_beta   126.11017745
_cell_angle_gamma   148.66651035
_symmetry_Int_Tables_number   1
_chemical_formula_structural   LiZr7(Si4Ru3)4
_chemical_formula_sum   'Li1 Zr7 Si16 Ru12'
_cell_volume   540.97420648
_cell_formula_units_Z   1
loop_
 _symmetry_equiv_pos_site_id
 _symmetry_equiv_pos_as_xyz
  1  'x, y, z'
loop_
 _atom_site_type_symbol
 _atom_site_label
 _atom_site_symmetry_multiplicity
 _atom_site_fract_x
 _atom_site_fract_y
 _atom_site_fract_z
 _atom_site_occupancy
  Li  Li0  1  0.55937900  0.70081300  0.35342300  1
  Zr  Zr1  1  0.70365000  0.55677700  0.14904200  1
  Zr  Zr2  1  0.44492300  0.30490400  0.64030600  1
  Zr  Zr3  1  0.29573000  0.44387100  0.85217100  1
  Zr  Zr4  1  0.29690800  0.96164600  0.36386000  1
  Zr  Zr5  1  0.95875900  0.29210300  0.13787200  1
  Zr  Zr6  1  0.70331400  0.03772000  0.63426600  1
  Zr  Zr7  1  0.04242000  0.70735200  0.86507100  1
  Si  Si8  1  0.57106600  0.90529700  0.42961100  1
  Si  Si9  1  0.92075800  0.57755000  0.06625700  1
  Si  Si10  1  0.42861400  0.08776300  0.56362300  1
  Si  Si11  1  0.08202300  0.42492800  0.93373800  1
  Si  Si12  1  0.39198900  0.85036400  0.11276000  1
  Si  Si13  1  0.85403500  0.38259500  0.39671700  1
  Si  Si14  1  0.60990700  0.14237700  0.89477500  1
  Si  Si15  1  0.14153200  0.61232200  0.60283400  1
  Si  Si16  1  0.25503100  0.03032100  0.10492000  1
  Si  Si17  1  0.03503500  0.26024700  0.39371300  1
  Si  Si18  1  0.74579900  0.97298100  0.89373300  1
  Si  Si19  1  0.98144200  0.75373200  0.60853200  1
  Si  Si20  1  0.38051400  0.38230200  0.25234100  1
  Si  Si21  1  0.61601800  0.61667700  0.75109100  1
  Si  Si22  1  0.86627900  0.87054500  0.25235300  1
  Si  Si23  1  0.12676800  0.12718100  0.74915600  1
  Ru  Ru24  1  0.64594300  0.17164700  0.21693100  1
  Ru  Ru25  1  0.16730200  0.64856500  0.28009800  1
  Ru  Ru26  1  0.35386600  0.83165700  0.77969200  1
  Ru  Ru27  1  0.82979500  0.35520700  0.71845900  1
  Ru  Ru28  1  0.51212700  0.75666400  0.06581200  1
  Ru  Ru29  1  0.76155200  0.51491400  0.43287700  1
  Ru  Ru30  1  0.48440000  0.24105000  0.93107500  1
  Ru  Ru31  1  0.23991200  0.48484400  0.56766700  1
  Ru  Ru32  1  0.13776500  0.09562700  0.41602300  1
  Ru  Ru33  1  0.09393900  0.13702500  0.08581300  1
  Ru  Ru34  1  0.85898900  0.89925100  0.58849100  1
  Ru  Ru35  1  0.90251400  0.86117800  0.91488900  1
