# generated using pymatgen
data_RbLi5(BO3)2
_symmetry_space_group_name_H-M   'P 1'
_cell_length_a   7.56356331
_cell_length_b   7.56356323
_cell_length_c   7.95527267
_cell_angle_alpha   58.80405217
_cell_angle_beta   58.80405183
_cell_angle_gamma   78.53950406
_symmetry_Int_Tables_number   1
_chemical_formula_structural   RbLi5(BO3)2
_chemical_formula_sum   'Rb2 Li10 B4 O12'
_cell_volume   331.49264175
_cell_formula_units_Z   2
loop_
 _symmetry_equiv_pos_site_id
 _symmetry_equiv_pos_as_xyz
  1  'x, y, z'
loop_
 _atom_site_type_symbol
 _atom_site_label
 _atom_site_symmetry_multiplicity
 _atom_site_fract_x
 _atom_site_fract_y
 _atom_site_fract_z
 _atom_site_occupancy
  Rb  Rb0  1  0.67733600  0.32266400  0.75000000  1
  Rb  Rb1  1  0.32266400  0.67733600  0.25000000  1
  Li  Li2  1  0.53022500  0.26380300  0.22940900  1
  Li  Li3  1  0.70380100  0.07339500  0.46217700  1
  Li  Li4  1  0.46977500  0.73619700  0.77059100  1
  Li  Li5  1  0.73619700  0.46977500  0.27059100  1
  Li  Li6  1  0.00000000  0.00000000  0.00000000  1
  Li  Li7  1  0.29619900  0.92660500  0.53782300  1
  Li  Li8  1  0.26380300  0.53022500  0.72940900  1
  Li  Li9  1  0.07339500  0.70380100  0.96217700  1
  Li  Li10  1  0.00000000  0.00000000  0.50000000  1
  Li  Li11  1  0.92660500  0.29619900  0.03782300  1
  B  B12  1  0.83135100  0.68792900  0.81019600  1
  B  B13  1  0.68792900  0.83135100  0.31019600  1
  B  B14  1  0.16864900  0.31207100  0.18980400  1
  B  B15  1  0.31207100  0.16864900  0.68980400  1
  O  O16  1  0.16400800  0.27166900  0.79666200  1
  O  O17  1  0.04551900  0.73357000  0.71257600  1
  O  O18  1  0.95448100  0.26643000  0.28742400  1
  O  O19  1  0.27166900  0.16400800  0.29666200  1
  O  O20  1  0.73357000  0.04551900  0.21257600  1
  O  O21  1  0.26643000  0.95448100  0.78742400  1
  O  O22  1  0.50228500  0.72973700  0.50531700  1
  O  O23  1  0.83599200  0.72833100  0.20333800  1
  O  O24  1  0.72973700  0.50228500  0.00531700  1
  O  O25  1  0.27026300  0.49771500  0.99468300  1
  O  O26  1  0.49771500  0.27026300  0.49468300  1
  O  O27  1  0.72833100  0.83599200  0.70333800  1
