# generated using pymatgen
data_NdCrO3
_symmetry_space_group_name_H-M   'P 1'
_cell_length_a   5.42096311
_cell_length_b   5.53422111
_cell_length_c   7.71471539
_cell_angle_alpha   90.00000000
_cell_angle_beta   90.00000000
_cell_angle_gamma   90.00000000
_symmetry_Int_Tables_number   1
_chemical_formula_structural   NdCrO3
_chemical_formula_sum   'Nd4 Cr4 O12'
_cell_volume   231.44769889
_cell_formula_units_Z   4
loop_
 _symmetry_equiv_pos_site_id
 _symmetry_equiv_pos_as_xyz
  1  'x, y, z'
loop_
 _atom_type_symbol
 _atom_type_oxidation_number
  Nd3+  3.0
  Cr3+  3.0
  O2-  -2.0
loop_
 _atom_site_type_symbol
 _atom_site_label
 _atom_site_symmetry_multiplicity
 _atom_site_fract_x
 _atom_site_fract_y
 _atom_site_fract_z
 _atom_site_occupancy
  Nd3+  Nd0  1  0.48878495  0.95146674  0.25000000  1
  Nd3+  Nd1  1  0.98878495  0.54853326  0.75000000  1
  Nd3+  Nd2  1  0.01121505  0.45146674  0.25000000  1
  Nd3+  Nd3  1  0.51121505  0.04853326  0.75000000  1
  Cr3+  Cr4  1  0.50000000  0.50000000  0.00000000  1
  Cr3+  Cr5  1  0.00000000  0.00000000  0.00000000  1
  Cr3+  Cr6  1  0.00000000  0.00000000  0.50000000  1
  Cr3+  Cr7  1  0.50000000  0.50000000  0.50000000  1
  O2-  O8  1  0.70834180  0.79092346  0.95564530  1
  O2-  O9  1  0.20834180  0.70907654  0.04435470  1
  O2-  O10  1  0.79165820  0.29092346  0.54435470  1
  O2-  O11  1  0.29165820  0.20907654  0.45564530  1
  O2-  O12  1  0.29165820  0.20907654  0.04435470  1
  O2-  O13  1  0.79165820  0.29092346  0.95564530  1
  O2-  O14  1  0.20834180  0.70907654  0.45564530  1
  O2-  O15  1  0.70834180  0.79092346  0.54435470  1
  O2-  O16  1  0.41674309  0.47997008  0.75000000  1
  O2-  O17  1  0.91674309  0.02002992  0.25000000  1
  O2-  O18  1  0.58325691  0.52002992  0.25000000  1
  O2-  O19  1  0.08325691  0.97997008  0.75000000  1
