# generated using pymatgen
data_CaFeO3
_symmetry_space_group_name_H-M   'P 1'
_cell_length_a   5.29247074
_cell_length_b   5.32339252
_cell_length_c   7.48776665
_cell_angle_alpha   90.00000000
_cell_angle_beta   90.00000000
_cell_angle_gamma   90.00000000
_symmetry_Int_Tables_number   1
_chemical_formula_structural   CaFeO3
_chemical_formula_sum   'Ca4 Fe4 O12'
_cell_volume   210.95958245
_cell_formula_units_Z   4
loop_
 _symmetry_equiv_pos_site_id
 _symmetry_equiv_pos_as_xyz
  1  'x, y, z'
loop_
 _atom_type_symbol
 _atom_type_oxidation_number
  Ca2+  2.0
  Fe4+  4.0
  O2-  -2.0
loop_
 _atom_site_type_symbol
 _atom_site_label
 _atom_site_symmetry_multiplicity
 _atom_site_fract_x
 _atom_site_fract_y
 _atom_site_fract_z
 _atom_site_occupancy
  Ca2+  Ca0  1  0.50648445  0.03518660  0.75000000  1
  Ca2+  Ca1  1  0.49351555  0.96481340  0.25000000  1
  Ca2+  Ca2  1  0.99351555  0.53518660  0.75000000  1
  Ca2+  Ca3  1  0.00648445  0.46481340  0.25000000  1
  Fe4+  Fe4  1  0.50000000  0.50000000  0.50000000  1
  Fe4+  Fe5  1  0.50000000  0.50000000  0.00000000  1
  Fe4+  Fe6  1  0.00000000  0.00000000  0.00000000  1
  Fe4+  Fe7  1  0.00000000  0.00000000  0.50000000  1
  O2-  O8  1  0.21561014  0.71561180  0.03252083  1
  O2-  O9  1  0.21561014  0.71561180  0.46747917  1
  O2-  O10  1  0.71561014  0.78438820  0.96747917  1
  O2-  O11  1  0.78438986  0.28438820  0.53252083  1
  O2-  O12  1  0.28438986  0.21561180  0.46747917  1
  O2-  O13  1  0.78438986  0.28438820  0.96747917  1
  O2-  O14  1  0.43779567  0.49050122  0.75000000  1
  O2-  O15  1  0.93779567  0.00949878  0.25000000  1
  O2-  O16  1  0.06220433  0.99050122  0.75000000  1
  O2-  O17  1  0.71561014  0.78438820  0.53252083  1
  O2-  O18  1  0.28438986  0.21561180  0.03252083  1
  O2-  O19  1  0.56220433  0.50949878  0.25000000  1
