# generated using pymatgen
data_Ba3LiP2H
_symmetry_space_group_name_H-M   'P 1'
_cell_length_a   4.61604700
_cell_length_b   12.64919700
_cell_length_c   13.20099100
_cell_angle_alpha   90.00000000
_cell_angle_beta   90.00000000
_cell_angle_gamma   90.00000000
_symmetry_Int_Tables_number   1
_chemical_formula_structural   Ba3LiP2H
_chemical_formula_sum   'Ba12 Li4 P8 H4'
_cell_volume   770.79646359
_cell_formula_units_Z   4
loop_
 _symmetry_equiv_pos_site_id
 _symmetry_equiv_pos_as_xyz
  1  'x, y, z'
loop_
 _atom_site_type_symbol
 _atom_site_label
 _atom_site_symmetry_multiplicity
 _atom_site_fract_x
 _atom_site_fract_y
 _atom_site_fract_z
 _atom_site_occupancy
  Ba  Ba0  1  0.25000000  0.06404300  0.62041100  1
  Ba  Ba1  1  0.25000000  0.56404300  0.87958900  1
  Ba  Ba2  1  0.75000000  0.93595700  0.37958900  1
  Ba  Ba3  1  0.75000000  0.43595700  0.12041100  1
  Ba  Ba4  1  0.25000000  0.19902000  0.30214800  1
  Ba  Ba5  1  0.25000000  0.69902000  0.19785200  1
  Ba  Ba6  1  0.75000000  0.80098000  0.69785200  1
  Ba  Ba7  1  0.75000000  0.30098000  0.80214800  1
  Ba  Ba8  1  0.25000000  0.37220000  0.55894900  1
  Ba  Ba9  1  0.25000000  0.87220000  0.94105100  1
  Ba  Ba10  1  0.75000000  0.62780000  0.44105100  1
  Ba  Ba11  1  0.75000000  0.12780000  0.05894900  1
  Li  Li12  1  0.25000000  0.13553700  0.85457100  1
  Li  Li13  1  0.25000000  0.63553700  0.64542900  1
  Li  Li14  1  0.75000000  0.86446300  0.14542900  1
  Li  Li15  1  0.75000000  0.36446300  0.35457100  1
  P  P16  1  0.25000000  0.30830000  0.98525900  1
  P  P17  1  0.25000000  0.80830000  0.51474100  1
  P  P18  1  0.75000000  0.69170000  0.01474100  1
  P  P19  1  0.75000000  0.19170000  0.48525900  1
  P  P20  1  0.25000000  0.46606300  0.32573900  1
  P  P21  1  0.25000000  0.96606300  0.17426100  1
  P  P22  1  0.75000000  0.53393700  0.67426100  1
  P  P23  1  0.75000000  0.03393700  0.82573900  1
  H  H24  1  0.25000000  0.23386100  0.73273400  1
  H  H25  1  0.25000000  0.73386100  0.76726600  1
  H  H26  1  0.75000000  0.76613900  0.26726600  1
  H  H27  1  0.75000000  0.26613900  0.23273400  1
