# generated using pymatgen
data_K3Li2VP3
_symmetry_space_group_name_H-M   'P 1'
_cell_length_a   9.74343198
_cell_length_b   9.74343006
_cell_length_c   14.66596400
_cell_angle_alpha   90.00000000
_cell_angle_beta   90.00000000
_cell_angle_gamma   142.93839011
_symmetry_Int_Tables_number   1
_chemical_formula_structural   K3Li2VP3
_chemical_formula_sum   'K12 Li8 V4 P12'
_cell_volume   839.10536864
_cell_formula_units_Z   4
loop_
 _symmetry_equiv_pos_site_id
 _symmetry_equiv_pos_as_xyz
  1  'x, y, z'
loop_
 _atom_site_type_symbol
 _atom_site_label
 _atom_site_symmetry_multiplicity
 _atom_site_fract_x
 _atom_site_fract_y
 _atom_site_fract_z
 _atom_site_occupancy
  K  K0  1  0.10554800  0.44545800  0.67096900  1
  K  K1  1  0.71698300  0.71698300  0.68001800  1
  K  K2  1  0.21698300  0.21698300  0.81998200  1
  K  K3  1  0.78301700  0.78301700  0.18001800  1
  K  K4  1  0.94545800  0.60554800  0.82903100  1
  K  K5  1  0.55454200  0.89445200  0.32903100  1
  K  K6  1  0.39445200  0.05454200  0.17096900  1
  K  K7  1  0.05454200  0.39445200  0.17096900  1
  K  K8  1  0.89445200  0.55454200  0.32903100  1
  K  K9  1  0.44545800  0.10554800  0.67096900  1
  K  K10  1  0.60554800  0.94545900  0.82903100  1
  K  K11  1  0.28301700  0.28301700  0.31998200  1
  Li  Li12  1  0.91723100  0.08276900  0.00000000  1
  Li  Li13  1  0.58276900  0.41723100  0.50000000  1
  Li  Li14  1  0.08276900  0.91723100  0.00000000  1
  Li  Li15  1  0.41723100  0.58276900  0.50000000  1
  Li  Li16  1  0.75047000  0.24953000  0.00000000  1
  Li  Li17  1  0.74953000  0.25047000  0.50000000  1
  Li  Li18  1  0.24953000  0.75047000  0.00000000  1
  Li  Li19  1  0.25047000  0.74953000  0.50000000  1
  V  V20  1  0.08399800  0.91600200  0.50000000  1
  V  V21  1  0.41600200  0.58399800  0.00000000  1
  V  V22  1  0.91600200  0.08399800  0.50000000  1
  V  V23  1  0.58399800  0.41600200  0.00000000  1
  P  P24  1  0.87942000  0.56260400  0.08774500  1
  P  P25  1  0.43739600  0.12058000  0.91225500  1
  P  P26  1  0.62058000  0.93739600  0.58774500  1
  P  P27  1  0.93739600  0.62058000  0.58774500  1
  P  P28  1  0.12058000  0.43739600  0.91225500  1
  P  P29  1  0.56260400  0.87942000  0.08774500  1
  P  P30  1  0.37942000  0.06260400  0.41225500  1
  P  P31  1  0.21255400  0.21255400  0.58276100  1
  P  P32  1  0.71255400  0.71255400  0.91723900  1
  P  P33  1  0.28744600  0.28744600  0.08276100  1
  P  P34  1  0.06260400  0.37942000  0.41225500  1
  P  P35  1  0.78744600  0.78744600  0.41723900  1
