# generated using pymatgen
data_Li2(AcSb)3
_symmetry_space_group_name_H-M   'P 1'
_cell_length_a   4.72658200
_cell_length_b   4.72658193
_cell_length_c   25.79360500
_cell_angle_alpha   90.00000000
_cell_angle_beta   90.00000000
_cell_angle_gamma   120.00000052
_symmetry_Int_Tables_number   1
_chemical_formula_structural   Li2(AcSb)3
_chemical_formula_sum   'Li4 Ac6 Sb6'
_cell_volume   499.04195752
_cell_formula_units_Z   2
loop_
 _symmetry_equiv_pos_site_id
 _symmetry_equiv_pos_as_xyz
  1  'x, y, z'
loop_
 _atom_site_type_symbol
 _atom_site_label
 _atom_site_symmetry_multiplicity
 _atom_site_fract_x
 _atom_site_fract_y
 _atom_site_fract_z
 _atom_site_occupancy
  Li  Li0  1  0.00000000  0.00000000  0.83310600  1
  Li  Li1  1  0.00000000  0.00000000  0.16689400  1
  Li  Li2  1  0.00000000  0.00000000  0.33310600  1
  Li  Li3  1  0.00000000  0.00000000  0.66689400  1
  Ac  Ac4  1  0.66666700  0.33333300  0.92603600  1
  Ac  Ac5  1  0.33333300  0.66666700  0.07396400  1
  Ac  Ac6  1  0.33333300  0.66666700  0.42603600  1
  Ac  Ac7  1  0.66666700  0.33333300  0.57396400  1
  Ac  Ac8  1  0.33333300  0.66666700  0.25000000  1
  Ac  Ac9  1  0.66666700  0.33333300  0.75000000  1
  Sb  Sb10  1  0.33333300  0.66666700  0.66146300  1
  Sb  Sb11  1  0.00000000  0.00000000  0.50000000  1
  Sb  Sb12  1  0.66666700  0.33333300  0.33853700  1
  Sb  Sb13  1  0.33333300  0.66666700  0.83853700  1
  Sb  Sb14  1  0.66666700  0.33333300  0.16146300  1
  Sb  Sb15  1  0.00000000  0.00000000  0.00000000  1
