# generated using pymatgen
data_Li2Ho3AgSn3
_symmetry_space_group_name_H-M   'P 1'
_cell_length_a   7.28149500
_cell_length_b   7.29635293
_cell_length_c   4.57028700
_cell_angle_alpha   90.00000000
_cell_angle_beta   90.00000000
_cell_angle_gamma   119.93266544
_symmetry_Int_Tables_number   1
_chemical_formula_structural   Li2Ho3AgSn3
_chemical_formula_sum   'Li2 Ho3 Ag1 Sn3'
_cell_volume   210.42375486
_cell_formula_units_Z   1
loop_
 _symmetry_equiv_pos_site_id
 _symmetry_equiv_pos_as_xyz
  1  'x, y, z'
loop_
 _atom_site_type_symbol
 _atom_site_label
 _atom_site_symmetry_multiplicity
 _atom_site_fract_x
 _atom_site_fract_y
 _atom_site_fract_z
 _atom_site_occupancy
  Li  Li0  1  0.00423400  0.23301100  0.50000000  1
  Li  Li1  1  0.77122200  0.76698900  0.50000000  1
  Ho  Ho2  1  0.00163300  0.56796500  0.00000000  1
  Ho  Ho3  1  0.43366800  0.43203500  0.00000000  1
  Ho  Ho4  1  0.55440300  0.00000000  0.00000000  1
  Ag  Ag5  1  0.23685400  0.00000000  0.50000000  1
  Sn  Sn6  1  0.99090800  0.00000000  0.00000000  1
  Sn  Sn7  1  0.67279600  0.33851300  0.50000000  1
  Sn  Sn8  1  0.33428200  0.66148700  0.50000000  1
