# generated using pymatgen
data_Li2NpI6
_symmetry_space_group_name_H-M   'P 1'
_cell_length_a   7.44511900
_cell_length_b   7.44511995
_cell_length_c   15.00496900
_cell_angle_alpha   90.00000000
_cell_angle_beta   90.00000000
_cell_angle_gamma   120.00000021
_symmetry_Int_Tables_number   1
_chemical_formula_structural   Li2NpI6
_chemical_formula_sum   'Li4 Np2 I12'
_cell_volume   720.29280458
_cell_formula_units_Z   2
loop_
 _symmetry_equiv_pos_site_id
 _symmetry_equiv_pos_as_xyz
  1  'x, y, z'
loop_
 _atom_site_type_symbol
 _atom_site_label
 _atom_site_symmetry_multiplicity
 _atom_site_fract_x
 _atom_site_fract_y
 _atom_site_fract_z
 _atom_site_occupancy
  Li  Li0  1  0.66666700  0.33333300  0.25000000  1
  Li  Li1  1  0.33333300  0.66666700  0.75000000  1
  Li  Li2  1  0.00000000  0.00000000  0.25000000  1
  Li  Li3  1  0.00000000  0.00000000  0.75000000  1
  Np  Np4  1  0.66666700  0.33333300  0.75000000  1
  Np  Np5  1  0.33333300  0.66666700  0.25000000  1
  I  I6  1  0.33308400  0.99548600  0.13373700  1
  I  I7  1  0.99548600  0.33308400  0.63373700  1
  I  I8  1  0.66691600  0.66240200  0.63373700  1
  I  I9  1  0.66691600  0.00451400  0.86626300  1
  I  I10  1  0.33308400  0.33759800  0.36626300  1
  I  I11  1  0.00451400  0.66691600  0.36626300  1
  I  I12  1  0.33759800  0.33308400  0.86626300  1
  I  I13  1  0.66240200  0.66691600  0.13373700  1
  I  I14  1  0.99548600  0.66240200  0.86626300  1
  I  I15  1  0.00451400  0.33759800  0.13373700  1
  I  I16  1  0.66240200  0.99548600  0.36626300  1
  I  I17  1  0.33759800  0.00451400  0.63373700  1
