# generated using pymatgen
data_Li2Tc2(OF2)3
_symmetry_space_group_name_H-M   'P 1'
_cell_length_a   5.52597500
_cell_length_b   5.52597462
_cell_length_c   20.92986000
_cell_angle_alpha   90.00000000
_cell_angle_beta   90.00000000
_cell_angle_gamma   120.00000828
_symmetry_Int_Tables_number   1
_chemical_formula_structural   Li2Tc2(OF2)3
_chemical_formula_sum   'Li6 Tc6 O9 F18'
_cell_volume   553.49629780
_cell_formula_units_Z   3
loop_
 _symmetry_equiv_pos_site_id
 _symmetry_equiv_pos_as_xyz
  1  'x, y, z'
loop_
 _atom_site_type_symbol
 _atom_site_label
 _atom_site_symmetry_multiplicity
 _atom_site_fract_x
 _atom_site_fract_y
 _atom_site_fract_z
 _atom_site_occupancy
  Li  Li0  1  0.43685100  0.44517900  0.14334000  1
  Li  Li1  1  0.99167300  0.55482100  0.52332600  1
  Li  Li2  1  0.44517900  0.43685100  0.85666000  1
  Li  Li3  1  0.55482100  0.99167300  0.47667400  1
  Li  Li4  1  0.56314900  0.00832700  0.18999300  1
  Li  Li5  1  0.00832700  0.56314900  0.81000700  1
  Tc  Tc6  1  0.77340400  0.10601600  0.04372500  1
  Tc  Tc7  1  0.66738800  0.89398400  0.62294200  1
  Tc  Tc8  1  0.22659600  0.33261200  0.28960900  1
  Tc  Tc9  1  0.89398400  0.66738800  0.37705800  1
  Tc  Tc10  1  0.33261200  0.22659600  0.71039100  1
  Tc  Tc11  1  0.10601600  0.77340400  0.95627500  1
  O  O12  1  0.09030000  0.00000000  0.33333300  1
  O  O13  1  0.90970000  0.90970000  0.00000000  1
  O  O14  1  0.50514100  0.57845900  0.67369300  1
  O  O15  1  0.57845900  0.50514100  0.32630700  1
  O  O16  1  0.42154100  0.92668200  0.00702700  1
  O  O17  1  0.00000000  0.09030000  0.66666700  1
  O  O18  1  0.92668200  0.42154100  0.99297300  1
  O  O19  1  0.07331800  0.49485900  0.34036000  1
  O  O20  1  0.49485900  0.07331800  0.65964000  1
  F  F21  1  0.35910100  0.70388300  0.55914500  1
  F  F22  1  0.15993100  0.87702700  0.75973900  1
  F  F23  1  0.28290500  0.12297300  0.90692800  1
  F  F24  1  0.82515300  0.63484600  0.88501900  1
  F  F25  1  0.65521800  0.29611700  0.10752200  1
  F  F26  1  0.63484600  0.82515300  0.11498100  1
  F  F27  1  0.19030600  0.36515400  0.78164800  1
  F  F28  1  0.17484700  0.80969400  0.44831400  1
  F  F29  1  0.64089900  0.34478200  0.77418800  1
  F  F30  1  0.71709500  0.84006900  0.42640600  1
  F  F31  1  0.36515400  0.19030600  0.21835200  1
  F  F32  1  0.12297300  0.28290500  0.09307200  1
  F  F33  1  0.87702700  0.15993100  0.24026100  1
  F  F34  1  0.34478200  0.64089900  0.22581200  1
  F  F35  1  0.29611700  0.65521800  0.89247800  1
  F  F36  1  0.70388300  0.35910100  0.44085500  1
  F  F37  1  0.80969400  0.17484700  0.55168600  1
  F  F38  1  0.84006900  0.71709500  0.57359400  1
