# generated using pymatgen
data_Li3Ta(NiP)4
_symmetry_space_group_name_H-M   'P 1'
_cell_length_a   3.65416200
_cell_length_b   6.08102808
_cell_length_c   6.73327637
_cell_angle_alpha   89.82185452
_cell_angle_beta   90.00000000
_cell_angle_gamma   90.00000000
_symmetry_Int_Tables_number   1
_chemical_formula_structural   Li3Ta(NiP)4
_chemical_formula_sum   'Li3 Ta1 Ni4 P4'
_cell_volume   149.61982654
_cell_formula_units_Z   1
loop_
 _symmetry_equiv_pos_site_id
 _symmetry_equiv_pos_as_xyz
  1  'x, y, z'
loop_
 _atom_site_type_symbol
 _atom_site_label
 _atom_site_symmetry_multiplicity
 _atom_site_fract_x
 _atom_site_fract_y
 _atom_site_fract_z
 _atom_site_occupancy
  Li  Li0  1  0.25000000  0.02031200  0.82451100  1
  Li  Li1  1  0.25000000  0.52157100  0.68104200  1
  Li  Li2  1  0.75000000  0.97605500  0.17398800  1
  Ta  Ta3  1  0.75000000  0.47642100  0.32777400  1
  Ni  Ni4  1  0.25000000  0.14285000  0.43814600  1
  Ni  Ni5  1  0.25000000  0.65607700  0.05391900  1
  Ni  Ni6  1  0.75000000  0.85637100  0.56170900  1
  Ni  Ni7  1  0.75000000  0.35109400  0.93778600  1
  P  P8  1  0.25000000  0.27845900  0.12285600  1
  P  P9  1  0.25000000  0.77101400  0.37870200  1
  P  P10  1  0.75000000  0.71975100  0.87553800  1
  P  P11  1  0.75000000  0.23002500  0.62402900  1
