# generated using pymatgen
data_Li3YbFeN3
_symmetry_space_group_name_H-M   'P 1'
_cell_length_a   6.92725084
_cell_length_b   6.92725123
_cell_length_c   6.92725151
_cell_angle_alpha   48.08643978
_cell_angle_beta   48.08643469
_cell_angle_gamma   48.08645004
_symmetry_Int_Tables_number   1
_chemical_formula_structural   Li3YbFeN3
_chemical_formula_sum   'Li6 Yb2 Fe2 N6'
_cell_volume   168.67378088
_cell_formula_units_Z   2
loop_
 _symmetry_equiv_pos_site_id
 _symmetry_equiv_pos_as_xyz
  1  'x, y, z'
loop_
 _atom_site_type_symbol
 _atom_site_label
 _atom_site_symmetry_multiplicity
 _atom_site_fract_x
 _atom_site_fract_y
 _atom_site_fract_z
 _atom_site_occupancy
  Li  Li0  1  0.48478100  0.89316900  0.23611700  1
  Li  Li1  1  0.89316900  0.23611700  0.48478100  1
  Li  Li2  1  0.76388300  0.51521900  0.10683100  1
  Li  Li3  1  0.51521900  0.10683100  0.76388300  1
  Li  Li4  1  0.10683100  0.76388300  0.51521900  1
  Li  Li5  1  0.23611700  0.48478100  0.89316900  1
  Yb  Yb6  1  0.33688500  0.33688500  0.33688500  1
  Yb  Yb7  1  0.66311500  0.66311500  0.66311500  1
  Fe  Fe8  1  0.94143500  0.94143500  0.94143500  1
  Fe  Fe9  1  0.05856500  0.05856500  0.05856500  1
  N  N10  1  0.21917300  0.90773500  0.61594100  1
  N  N11  1  0.61594100  0.21917300  0.90773500  1
  N  N12  1  0.78082700  0.09226500  0.38405900  1
  N  N13  1  0.09226500  0.38405900  0.78082700  1
  N  N14  1  0.38405900  0.78082700  0.09226500  1
  N  N15  1  0.90773500  0.61594100  0.21917300  1
