# generated using pymatgen
data_Li4Pr6Pt13
_symmetry_space_group_name_H-M   'P 1'
_cell_length_a   8.40443554
_cell_length_b   8.40443551
_cell_length_c   8.40443600
_cell_angle_alpha   109.47121700
_cell_angle_beta   109.47121692
_cell_angle_gamma   109.47122443
_symmetry_Int_Tables_number   1
_chemical_formula_structural   Li4Pr6Pt13
_chemical_formula_sum   'Li4 Pr6 Pt13'
_cell_volume   456.98695423
_cell_formula_units_Z   1
loop_
 _symmetry_equiv_pos_site_id
 _symmetry_equiv_pos_as_xyz
  1  'x, y, z'
loop_
 _atom_site_type_symbol
 _atom_site_label
 _atom_site_symmetry_multiplicity
 _atom_site_fract_x
 _atom_site_fract_y
 _atom_site_fract_z
 _atom_site_occupancy
  Li  Li0  1  0.00000000  0.00000000  0.50000000  1
  Li  Li1  1  0.50000000  0.00000000  0.00000000  1
  Li  Li2  1  0.00000000  0.50000000  0.00000000  1
  Li  Li3  1  0.50000000  0.50000000  0.50000000  1
  Pr  Pr4  1  0.00000000  0.30422300  0.30422300  1
  Pr  Pr5  1  0.00000000  0.69577700  0.69577700  1
  Pr  Pr6  1  0.30422300  0.00000000  0.30422300  1
  Pr  Pr7  1  0.69577700  0.69577700  0.00000000  1
  Pr  Pr8  1  0.69577700  0.00000000  0.69577700  1
  Pr  Pr9  1  0.30422300  0.30422300  0.00000000  1
  Pt  Pt10  1  0.33120200  0.66879800  0.00000000  1
  Pt  Pt11  1  0.00000000  0.33120200  0.66879800  1
  Pt  Pt12  1  0.66879800  0.00000000  0.33120200  1
  Pt  Pt13  1  0.33759400  0.66879800  0.66879800  1
  Pt  Pt14  1  0.66879800  0.33759400  0.66879800  1
  Pt  Pt15  1  0.66240600  0.33120200  0.33120200  1
  Pt  Pt16  1  0.33120200  0.66240600  0.33120200  1
  Pt  Pt17  1  0.33120200  0.33120200  0.66240600  1
  Pt  Pt18  1  0.00000000  0.66879800  0.33120200  1
  Pt  Pt19  1  0.66879800  0.66879800  0.33759400  1
  Pt  Pt20  1  0.33120200  0.00000000  0.66879800  1
  Pt  Pt21  1  0.00000000  0.00000000  0.00000000  1
  Pt  Pt22  1  0.66879800  0.33120200  0.00000000  1
