# generated using pymatgen
data_Li4Y4Sn3Sb
_symmetry_space_group_name_H-M   'P 1'
_cell_length_a   9.37770189
_cell_length_b   9.37637252
_cell_length_c   7.30439963
_cell_angle_alpha   90.06439067
_cell_angle_beta   89.87124294
_cell_angle_gamma   120.00469014
_symmetry_Int_Tables_number   1
_chemical_formula_structural   Li4Y4Sn3Sb
_chemical_formula_sum   'Li8 Y8 Sn6 Sb2'
_cell_volume   556.19209232
_cell_formula_units_Z   2
loop_
 _symmetry_equiv_pos_site_id
 _symmetry_equiv_pos_as_xyz
  1  'x, y, z'
loop_
 _atom_site_type_symbol
 _atom_site_label
 _atom_site_symmetry_multiplicity
 _atom_site_fract_x
 _atom_site_fract_y
 _atom_site_fract_z
 _atom_site_occupancy
  Li  Li0  1  0.16639500  0.83209200  0.19294900  1
  Li  Li1  1  0.33430200  0.16790800  0.69294900  1
  Li  Li2  1  0.83223800  0.66556700  0.69267700  1
  Li  Li3  1  0.16667200  0.33443300  0.19267700  1
  Li  Li4  1  0.66599600  0.83288300  0.19340100  1
  Li  Li5  1  0.83311200  0.16711700  0.69340100  1
  Li  Li6  1  0.33369500  0.66620400  0.81433500  1
  Li  Li7  1  0.66749200  0.33379600  0.31433500  1
  Y  Y8  1  0.51347000  0.48886100  0.99137800  1
  Y  Y9  1  0.02460900  0.51113900  0.49137800  1
  Y  Y10  1  0.49043600  0.97454100  0.49220500  1
  Y  Y11  1  0.51589400  0.02545900  0.99220500  1
  Y  Y12  1  0.97312800  0.48459500  0.99252700  1
  Y  Y13  1  0.48853400  0.51540500  0.49252700  1
  Y  Y14  1  0.99707400  0.99995400  0.98560500  1
  Y  Y15  1  0.99712000  0.00004600  0.48560500  1
  Sn  Sn16  1  0.83353100  0.66702200  0.25572100  1
  Sn  Sn17  1  0.16651000  0.33297800  0.75572100  1
  Sn  Sn18  1  0.66693400  0.83393200  0.75558900  1
  Sn  Sn19  1  0.83300100  0.16606800  0.25558900  1
  Sn  Sn20  1  0.33362300  0.66731000  0.22377300  1
  Sn  Sn21  1  0.66631400  0.33269000  0.72377300  1
  Sb  Sb22  1  0.16701300  0.83410600  0.75484300  1
  Sb  Sb23  1  0.33290700  0.16589400  0.25484300  1
