# generated using pymatgen
data_LiEu4Ni
_symmetry_space_group_name_H-M   'P 1'
_cell_length_a   10.23312593
_cell_length_b   10.23312567
_cell_length_c   10.23312500
_cell_angle_alpha   59.99999894
_cell_angle_beta   59.99999979
_cell_angle_gamma   59.99999901
_symmetry_Int_Tables_number   1
_chemical_formula_structural   LiEu4Ni
_chemical_formula_sum   'Li4 Eu16 Ni4'
_cell_volume   757.72200624
_cell_formula_units_Z   4
loop_
 _symmetry_equiv_pos_site_id
 _symmetry_equiv_pos_as_xyz
  1  'x, y, z'
loop_
 _atom_site_type_symbol
 _atom_site_label
 _atom_site_symmetry_multiplicity
 _atom_site_fract_x
 _atom_site_fract_y
 _atom_site_fract_z
 _atom_site_occupancy
  Li  Li0  1  0.82543000  0.82543000  0.82543000  1
  Li  Li1  1  0.82543000  0.82543000  0.52371200  1
  Li  Li2  1  0.82543000  0.52371200  0.82543000  1
  Li  Li3  1  0.52371200  0.82543000  0.82543000  1
  Eu  Eu4  1  0.59336300  0.59336300  0.59336300  1
  Eu  Eu5  1  0.59336300  0.59336300  0.21991100  1
  Eu  Eu6  1  0.59336300  0.21991100  0.59336300  1
  Eu  Eu7  1  0.21991100  0.59336300  0.59336300  1
  Eu  Eu8  1  0.06125100  0.43874900  0.43874900  1
  Eu  Eu9  1  0.43874900  0.06125100  0.06125100  1
  Eu  Eu10  1  0.43874900  0.06125100  0.43874900  1
  Eu  Eu11  1  0.06125100  0.43874900  0.06125100  1
  Eu  Eu12  1  0.43874900  0.43874900  0.06125100  1
  Eu  Eu13  1  0.06125100  0.06125100  0.43874900  1
  Eu  Eu14  1  0.19282900  0.80717100  0.80717100  1
  Eu  Eu15  1  0.80717100  0.19282900  0.19282900  1
  Eu  Eu16  1  0.80717100  0.19282900  0.80717100  1
  Eu  Eu17  1  0.19282900  0.80717100  0.19282900  1
  Eu  Eu18  1  0.80717100  0.80717100  0.19282900  1
  Eu  Eu19  1  0.19282900  0.19282900  0.80717100  1
  Ni  Ni20  1  0.39030100  0.39030100  0.39030100  1
  Ni  Ni21  1  0.39030100  0.39030100  0.82910000  1
  Ni  Ni22  1  0.39030100  0.82910000  0.39030100  1
  Ni  Ni23  1  0.82910000  0.39030100  0.39030100  1
