# generated using pymatgen
data_LiZr3(Co4P3)2
_symmetry_space_group_name_H-M   'P 1'
_cell_length_a   11.94195948
_cell_length_b   12.00663568
_cell_length_c   3.64788600
_cell_angle_alpha   90.00000000
_cell_angle_beta   90.00000000
_cell_angle_gamma   120.17931066
_symmetry_Int_Tables_number   1
_chemical_formula_structural   LiZr3(Co4P3)2
_chemical_formula_sum   'Li2 Zr6 Co16 P12'
_cell_volume   452.14868320
_cell_formula_units_Z   2
loop_
 _symmetry_equiv_pos_site_id
 _symmetry_equiv_pos_as_xyz
  1  'x, y, z'
loop_
 _atom_site_type_symbol
 _atom_site_label
 _atom_site_symmetry_multiplicity
 _atom_site_fract_x
 _atom_site_fract_y
 _atom_site_fract_z
 _atom_site_occupancy
  Li  Li0  1  0.44274100  0.44158200  0.00000000  1
  Li  Li1  1  0.55725900  0.99884100  0.00000000  1
  Zr  Zr2  1  0.00000000  0.55678700  0.00000000  1
  Zr  Zr3  1  0.66618100  0.33110300  0.00000000  1
  Zr  Zr4  1  0.33381900  0.66492200  0.00000000  1
  Zr  Zr5  1  0.81312400  0.81245700  0.50000000  1
  Zr  Zr6  1  0.18687600  0.99933300  0.50000000  1
  Zr  Zr7  1  0.00000000  0.18064800  0.50000000  1
  Co  Co8  1  0.20086000  0.37624800  0.00000000  1
  Co  Co9  1  0.18178400  0.81061100  0.00000000  1
  Co  Co10  1  0.81821600  0.62882700  0.00000000  1
  Co  Co11  1  0.79914000  0.17538700  0.00000000  1
  Co  Co12  1  0.37618100  0.19850700  0.00000000  1
  Co  Co13  1  0.12770300  0.47869700  0.50000000  1
  Co  Co14  1  0.35846700  0.87434600  0.50000000  1
  Co  Co15  1  0.51904500  0.64694100  0.50000000  1
  Co  Co16  1  0.64153300  0.51587900  0.50000000  1
  Co  Co17  1  0.87229700  0.35099300  0.50000000  1
  Co  Co18  1  0.48095500  0.12789600  0.50000000  1
  Co  Co19  1  0.00000000  0.00274400  0.00000000  1
  Co  Co20  1  0.71639400  0.99992900  0.50000000  1
  Co  Co21  1  0.00000000  0.72368300  0.50000000  1
  Co  Co22  1  0.62381900  0.82232600  0.00000000  1
  Co  Co23  1  0.28360600  0.28353500  0.50000000  1
  P  P24  1  0.63412900  0.63909100  0.00000000  1
  P  P25  1  0.36587100  0.00496300  0.00000000  1
  P  P26  1  0.00000000  0.34492900  0.00000000  1
  P  P27  1  0.48235200  0.31371700  0.50000000  1
  P  P28  1  0.68323000  0.16653600  0.50000000  1
  P  P29  1  0.82362500  0.51695000  0.50000000  1
  P  P30  1  0.51764800  0.83136600  0.50000000  1
  P  P31  1  0.17637500  0.69332600  0.50000000  1
  P  P32  1  0.82036600  0.99844900  0.00000000  1
  P  P33  1  0.00000000  0.82706100  0.00000000  1
  P  P34  1  0.31677000  0.48330600  0.50000000  1
  P  P35  1  0.17963400  0.17808300  0.00000000  1
