# generated using pymatgen
data_TiFeO3
_symmetry_space_group_name_H-M   'P 1'
_cell_length_a   5.08657790
_cell_length_b   5.08657790
_cell_length_c   13.74697930
_cell_angle_alpha   90.00000000
_cell_angle_beta   90.00000000
_cell_angle_gamma   120.00000000
_symmetry_Int_Tables_number   1
_chemical_formula_structural   TiFeO3
_chemical_formula_sum   'Ti6 Fe6 O18'
_cell_volume   308.02737162
_cell_formula_units_Z   6
loop_
 _symmetry_equiv_pos_site_id
 _symmetry_equiv_pos_as_xyz
  1  'x, y, z'
loop_
 _atom_type_symbol
 _atom_type_oxidation_number
  Ti4+  4.0
  Fe2+  2.0
  O2-  -2.0
loop_
 _atom_site_type_symbol
 _atom_site_label
 _atom_site_symmetry_multiplicity
 _atom_site_fract_x
 _atom_site_fract_y
 _atom_site_fract_z
 _atom_site_occupancy
  Ti4+  Ti0  1  0.33333333  0.66666667  0.01654343  1
  Ti4+  Ti1  1  0.33333333  0.66666667  0.31678991  1
  Ti4+  Ti2  1  0.00000000  0.00000000  0.34987676  1
  Ti4+  Ti3  1  0.00000000  0.00000000  0.65012324  1
  Ti4+  Ti4  1  0.66666667  0.33333333  0.68321009  1
  Ti4+  Ti5  1  0.66666667  0.33333333  0.98345657  1
  Fe2+  Fe6  1  0.00000000  0.00000000  0.14914585  1
  Fe2+  Fe7  1  0.66666667  0.33333333  0.18418748  1
  Fe2+  Fe8  1  0.66666667  0.33333333  0.48247918  1
  Fe2+  Fe9  1  0.33333333  0.66666667  0.51752082  1
  Fe2+  Fe10  1  0.33333333  0.66666667  0.81581252  1
  Fe2+  Fe11  1  0.00000000  0.00000000  0.85085415  1
  O2-  O12  1  0.68054495  0.98471221  0.25296266  1
  O2-  O13  1  0.01528779  0.69583274  0.25296266  1
  O2-  O14  1  0.30416726  0.31945505  0.25296266  1
  O2-  O15  1  0.98612172  0.34862112  0.08037067  1
  O2-  O16  1  0.36249941  0.01387828  0.08037067  1
  O2-  O17  1  0.65137888  0.63750059  0.08037067  1
  O2-  O18  1  0.34721162  0.31804554  0.58629599  1
  O2-  O19  1  0.68195446  0.02916607  0.58629599  1
  O2-  O20  1  0.97083393  0.65278838  0.58629599  1
  O2-  O21  1  0.65278838  0.68195446  0.41370401  1
  O2-  O22  1  0.02916607  0.34721162  0.41370401  1
  O2-  O23  1  0.31804554  0.97083393  0.41370401  1
  O2-  O24  1  0.01387828  0.65137888  0.91962933  1
  O2-  O25  1  0.34862112  0.36249941  0.91962933  1
  O2-  O26  1  0.63750059  0.98612172  0.91962933  1
  O2-  O27  1  0.31945505  0.01528779  0.74703734  1
  O2-  O28  1  0.69583274  0.68054495  0.74703734  1
  O2-  O29  1  0.98471221  0.30416726  0.74703734  1
