# generated using pymatgen
data_YPO4
_symmetry_space_group_name_H-M   'P 1'
_cell_length_a   6.88984387
_cell_length_b   6.88984387
_cell_length_c   6.02374548
_cell_angle_alpha   90.00000000
_cell_angle_beta   90.00000000
_cell_angle_gamma   90.00000000
_symmetry_Int_Tables_number   1
_chemical_formula_structural   YPO4
_chemical_formula_sum   'Y4 P4 O16'
_cell_volume   285.94688846
_cell_formula_units_Z   4
loop_
 _symmetry_equiv_pos_site_id
 _symmetry_equiv_pos_as_xyz
  1  'x, y, z'
loop_
 _atom_type_symbol
 _atom_type_oxidation_number
  Y3+  3.0
  P5+  5.0
  O2-  -2.0
loop_
 _atom_site_type_symbol
 _atom_site_label
 _atom_site_symmetry_multiplicity
 _atom_site_fract_x
 _atom_site_fract_y
 _atom_site_fract_z
 _atom_site_occupancy
  Y3+  Y0  1  0.50000000  0.50000000  0.50000000  1
  Y3+  Y1  1  0.00000000  0.50000000  0.75000000  1
  Y3+  Y2  1  0.00000000  0.00000000  0.00000000  1
  Y3+  Y3  1  0.50000000  0.00000000  0.25000000  1
  P5+  P4  1  0.50000000  0.00000000  0.75000000  1
  P5+  P5  1  0.00000000  0.00000000  0.50000000  1
  P5+  P6  1  0.00000000  0.50000000  0.25000000  1
  P5+  P7  1  0.50000000  0.50000000  0.00000000  1
  O2-  O8  1  0.82535282  0.00000000  0.34105498  1
  O2-  O9  1  0.50000000  0.17464718  0.59105498  1
  O2-  O10  1  0.50000000  0.82535282  0.59105498  1
  O2-  O11  1  0.17464718  0.00000000  0.34105498  1
  O2-  O12  1  0.00000000  0.82535282  0.65894502  1
  O2-  O13  1  0.67464718  0.00000000  0.90894502  1
  O2-  O14  1  0.32535282  0.00000000  0.90894502  1
  O2-  O15  1  0.00000000  0.17464718  0.65894502  1
  O2-  O16  1  0.32535282  0.50000000  0.84105498  1
  O2-  O17  1  0.00000000  0.67464718  0.09105498  1
  O2-  O18  1  0.00000000  0.32535282  0.09105498  1
  O2-  O19  1  0.67464718  0.50000000  0.84105498  1
  O2-  O20  1  0.50000000  0.32535282  0.15894502  1
  O2-  O21  1  0.17464718  0.50000000  0.40894502  1
  O2-  O22  1  0.82535282  0.50000000  0.40894502  1
  O2-  O23  1  0.50000000  0.67464718  0.15894502  1
