# generated using pymatgen
data_YB4W
_symmetry_space_group_name_H-M   'P 1'
_cell_length_a   3.63058700
_cell_length_b   6.04683500
_cell_length_c   11.68557300
_cell_angle_alpha   90.00000000
_cell_angle_beta   90.00000000
_cell_angle_gamma   90.00000000
_symmetry_Int_Tables_number   1
_chemical_formula_structural   YB4W
_chemical_formula_sum   'Y4 B16 W4'
_cell_volume   256.53993433
_cell_formula_units_Z   4
loop_
 _symmetry_equiv_pos_site_id
 _symmetry_equiv_pos_as_xyz
  1  'x, y, z'
loop_
 _atom_type_symbol
 _atom_type_oxidation_number
  Y3+  3.0
  B1.50-  -1.5
  W3+  3.0
loop_
 _atom_site_type_symbol
 _atom_site_label
 _atom_site_symmetry_multiplicity
 _atom_site_fract_x
 _atom_site_fract_y
 _atom_site_fract_z
 _atom_site_occupancy
  Y3+  Y0  1  0.00000000  0.62688600  0.35019800  1
  Y3+  Y1  1  0.00000000  0.37311400  0.64980200  1
  Y3+  Y2  1  0.00000000  0.12688600  0.14980200  1
  Y3+  Y3  1  0.00000000  0.87311400  0.85019800  1
  B1.50-  B1.5-  1  0.50000000  0.78654200  0.18644400  1
  B1.50-  B1.5-  1  0.50000000  0.21345800  0.81355600  1
  B1.50-  B1.5-  1  0.50000000  0.28654200  0.31355600  1
  B1.50-  B1.5-  1  0.50000000  0.71345800  0.68644400  1
  B1.50-  B1.5-  1  0.50000000  0.86642900  0.03217500  1
  B1.50-  B1.5-  1  0.50000000  0.13357100  0.96782500  1
  B1.50-  B1.5-  1  0.50000000  0.36642900  0.46782500  1
  B1.50-  B1.5-  1  0.50000000  0.63357100  0.53217500  1
  B1.50-  B1.5-  1  0.50000000  0.88604400  0.45281900  1
  B1.50-  B1.5-  1  0.50000000  0.11395600  0.54718100  1
  B1.50-  B1.5-  1  0.50000000  0.38604400  0.04718100  1
  B1.50-  B1.5-  1  0.50000000  0.61395600  0.95281900  1
  B1.50-  B1.5-  1  0.50000000  0.97585600  0.30693100  1
  B1.50-  B1.5-  1  0.50000000  0.02414400  0.69306900  1
  B1.50-  B1.5-  1  0.50000000  0.47585600  0.19306900  1
  B1.50-  B1.5-  1  0.50000000  0.52414400  0.80693100  1
  W3+  W20  1  0.00000000  0.63047700  0.08422600  1
  W3+  W21  1  0.00000000  0.36952300  0.91577400  1
  W3+  W22  1  0.00000000  0.13047700  0.41577400  1
  W3+  W23  1  0.00000000  0.86952300  0.58422600  1
